
  -OEChem-07191912213D

 44 43  0     0  0  0  0  0  0999 V2000
    1.3552   -0.8513   -0.4121 C   0  0  0  0  0  0  0  0  0  0  0  0
    0.1816   -0.1932    0.3169 C   0  0  0  0  0  0  0  0  0  0  0  0
    1.2406   -0.7783   -1.9381 C   0  0  0  0  0  0  0  0  0  0  0  0
    0.3618   -0.2665    1.8350 C   0  0  0  0  0  0  0  0  0  0  0  0
    2.3770   -1.5022   -2.6652 C   0  0  0  0  0  0  0  0  0  0  0  0
   -0.7932    0.4198    2.5663 C   0  0  0  0  0  0  0  0  0  0  0  0
    2.2296   -1.4795   -4.1909 C   0  0  0  0  0  0  0  0  0  0  0  0
   -0.6299    0.3173    4.0847 C   0  0  0  0  0  0  0  0  0  0  0  0
    3.3796   -2.1824   -4.9193 C   0  0  0  0  0  0  0  0  0  0  0  0
   -1.8028    0.9788    4.8140 C   0  0  0  0  0  0  0  0  0  0  0  0
    3.2404   -2.1512   -6.4371 C   0  0  0  0  0  0  0  0  0  0  0  0
   -1.6969    0.8964    6.3317 C   0  0  0  0  0  0  0  0  0  0  0  0
    3.2578   -0.7558   -6.9352 N   0  3  0  0  0  0  0  0  0  0  0  0
   -1.7075   -0.5154    6.7817 N   0  3  0  0  0  0  0  0  0  0  0  0
    2.2970   -0.3897   -0.0913 H   0  0  0  0  0  0  0  0  0  0  0  0
    1.4082   -1.9086   -0.1240 H   0  0  0  0  0  0  0  0  0  0  0  0
   -0.7533   -0.6916    0.0336 H   0  0  0  0  0  0  0  0  0  0  0  0
    0.0945    0.8572    0.0173 H   0  0  0  0  0  0  0  0  0  0  0  0
    1.2051    0.2733   -2.2448 H   0  0  0  0  0  0  0  0  0  0  0  0
    0.2835   -1.2276   -2.2305 H   0  0  0  0  0  0  0  0  0  0  0  0
    0.4224   -1.3160    2.1480 H   0  0  0  0  0  0  0  0  0  0  0  0
    1.3092    0.2100    2.1153 H   0  0  0  0  0  0  0  0  0  0  0  0
    3.3423   -1.0609   -2.3922 H   0  0  0  0  0  0  0  0  0  0  0  0
    2.4023   -2.5496   -2.3400 H   0  0  0  0  0  0  0  0  0  0  0  0
   -0.8382    1.4754    2.2718 H   0  0  0  0  0  0  0  0  0  0  0  0
   -1.7429   -0.0404    2.2673 H   0  0  0  0  0  0  0  0  0  0  0  0
    1.2850   -1.9735   -4.4502 H   0  0  0  0  0  0  0  0  0  0  0  0
    2.1465   -0.4395   -4.5272 H   0  0  0  0  0  0  0  0  0  0  0  0
    0.3082    0.7991    4.3856 H   0  0  0  0  0  0  0  0  0  0  0  0
   -0.5579   -0.7393    4.3666 H   0  0  0  0  0  0  0  0  0  0  0  0
    3.4167   -3.2315   -4.6018 H   0  0  0  0  0  0  0  0  0  0  0  0
    4.3368   -1.7303   -4.6345 H   0  0  0  0  0  0  0  0  0  0  0  0
   -1.8458    2.0383    4.5327 H   0  0  0  0  0  0  0  0  0  0  0  0
   -2.7455    0.5262    4.4820 H   0  0  0  0  0  0  0  0  0  0  0  0
    4.0808   -2.6631   -6.9152 H   0  0  0  0  0  0  0  0  0  0  0  0
    2.3029   -2.6021   -6.7754 H   0  0  0  0  0  0  0  0  0  0  0  0
   -2.5543    1.3808    6.8081 H   0  0  0  0  0  0  0  0  0  0  0  0
   -0.7729    1.3468    6.7064 H   0  0  0  0  0  0  0  0  0  0  0  0
    3.5636   -0.1063   -6.2020 H   0  0  0  0  0  0  0  0  0  0  0  0
    2.3237   -0.4637   -7.2445 H   0  0  0  0  0  0  0  0  0  0  0  0
    3.8982   -0.6563   -7.7310 H   0  0  0  0  0  0  0  0  0  0  0  0
   -2.2725   -0.6275    7.6310 H   0  0  0  0  0  0  0  0  0  0  0  0
   -0.7572   -0.8423    6.9906 H   0  0  0  0  0  0  0  0  0  0  0  0
   -2.0999   -1.1297    6.0592 H   0  0  0  0  0  0  0  0  0  0  0  0
  1  2  1  0  0  0  0
  1  3  1  0  0  0  0
  2  4  1  0  0  0  0
  3  5  1  0  0  0  0
  4  6  1  0  0  0  0
  5  7  1  0  0  0  0
  6  8  1  0  0  0  0
  7  9  1  0  0  0  0
  8 10  1  0  0  0  0
  9 11  1  0  0  0  0
 10 12  1  0  0  0  0
 11 13  1  0  0  0  0
 12 14  1  0  0  0  0
  1 15  1  0  0  0  0
  1 16  1  0  0  0  0
  2 17  1  0  0  0  0
  2 18  1  0  0  0  0
  3 19  1  0  0  0  0
  3 20  1  0  0  0  0
  4 21  1  0  0  0  0
  4 22  1  0  0  0  0
  5 23  1  0  0  0  0
  5 24  1  0  0  0  0
  6 25  1  0  0  0  0
  6 26  1  0  0  0  0
  7 27  1  0  0  0  0
  7 28  1  0  0  0  0
  8 29  1  0  0  0  0
  8 30  1  0  0  0  0
  9 31  1  0  0  0  0
  9 32  1  0  0  0  0
 10 33  1  0  0  0  0
 10 34  1  0  0  0  0
 11 35  1  0  0  0  0
 11 36  1  0  0  0  0
 12 37  1  0  0  0  0
 12 38  1  0  0  0  0
 13 39  1  0  0  0  0
 13 40  1  0  0  0  0
 13 41  1  0  0  0  0
 14 42  1  0  0  0  0
 14 43  1  0  0  0  0
 14 44  1  0  0  0  0
M  CHG  2  13   1  14   1
M  END
$$$$
