
  -OEChem-07191912213D

 23 22  0     0  0  0  0  0  0999 V2000
   -0.9107   -0.4826    0.3725 C   0  0  0  0  0  0  0  0  0  0  0  0
   -1.1013   -1.8428   -0.3049 C   0  0  0  0  0  0  0  0  0  0  0  0
   -0.8121   -0.6297    1.8925 C   0  0  0  0  0  0  0  0  0  0  0  0
   -1.1948   -1.7559   -1.8233 C   0  0  0  0  0  0  0  0  0  0  0  0
   -0.6587    0.7271    2.5638 C   0  0  0  0  0  0  0  0  0  0  0  0
    0.0357   -1.1558   -2.3903 N   0  3  0  0  0  0  0  0  0  0  0  0
   -0.5218    0.5323    4.0273 N   0  3  0  0  0  0  0  0  0  0  0  0
   -1.7528    0.1737    0.1217 H   0  0  0  0  0  0  0  0  0  0  0  0
    0.0000    0.0000    0.0000 H   0  0  0  0  0  0  0  0  0  0  0  0
   -2.0262   -2.3003    0.0675 H   0  0  0  0  0  0  0  0  0  0  0  0
   -0.2812   -2.5139   -0.0209 H   0  0  0  0  0  0  0  0  0  0  0  0
    0.0437   -1.2683    2.1447 H   0  0  0  0  0  0  0  0  0  0  0  0
   -1.7104   -1.1323    2.2723 H   0  0  0  0  0  0  0  0  0  0  0  0
   -2.0353   -1.1368   -2.1507 H   0  0  0  0  0  0  0  0  0  0  0  0
   -1.2862   -2.7528   -2.2646 H   0  0  0  0  0  0  0  0  0  0  0  0
    0.2407    1.2516    2.2281 H   0  0  0  0  0  0  0  0  0  0  0  0
   -1.5356    1.3627    2.4087 H   0  0  0  0  0  0  0  0  0  0  0  0
    0.8678   -1.4647   -1.8752 H   0  0  0  0  0  0  0  0  0  0  0  0
    0.0001   -0.1311   -2.3450 H   0  0  0  0  0  0  0  0  0  0  0  0
    0.1570   -1.4234   -3.3737 H   0  0  0  0  0  0  0  0  0  0  0  0
   -1.2440   -0.1037    4.3828 H   0  0  0  0  0  0  0  0  0  0  0  0
   -0.6135    1.4241    4.5265 H   0  0  0  0  0  0  0  0  0  0  0  0
    0.3936    0.1325    4.2610 H   0  0  0  0  0  0  0  0  0  0  0  0
  1  2  1  0  0  0  0
  1  3  1  0  0  0  0
  2  4  1  0  0  0  0
  3  5  1  0  0  0  0
  4  6  1  0  0  0  0
  5  7  1  0  0  0  0
  1  8  1  0  0  0  0
  1  9  1  0  0  0  0
  2 10  1  0  0  0  0
  2 11  1  0  0  0  0
  3 12  1  0  0  0  0
  3 13  1  0  0  0  0
  4 14  1  0  0  0  0
  4 15  1  0  0  0  0
  5 16  1  0  0  0  0
  5 17  1  0  0  0  0
  6 18  1  0  0  0  0
  6 19  1  0  0  0  0
  6 20  1  0  0  0  0
  7 21  1  0  0  0  0
  7 22  1  0  0  0  0
  7 23  1  0  0  0  0
M  CHG  2   6   1   7   1
M  END
$$$$
