
  -OEChem-07191912213D

 38 40  0     0  0  0  0  0  0999 V2000
   -0.2432    1.7135   -0.8857 C   0  0  0  0  0  0  0  0  0  0  0  0
   -1.8381    0.3724    0.5116 C   0  0  0  0  0  0  0  0  0  0  0  0
    0.3160    1.1909    1.5035 C   0  0  0  0  0  0  0  0  0  0  0  0
   -0.5660   -0.7327   -1.3493 C   0  0  0  0  0  0  0  0  0  0  0  0
    1.5953    0.0885   -0.3539 C   0  0  0  0  0  0  0  0  0  0  0  0
   -0.0051   -1.2569    1.0479 C   0  0  0  0  0  0  0  0  0  0  0  0
   -1.2680    0.5648   -0.9054 C   0  0  0  0  0  0  0  0  0  0  0  0
    0.8999    1.3885    0.0930 C   0  0  0  0  0  0  0  0  0  0  0  0
   -0.7053    0.0390    1.4992 C   0  0  0  0  0  0  0  0  0  0  0  0
    0.5702   -1.0585   -0.3649 C   0  0  0  0  0  0  0  0  0  0  0  0
    2.3869   -2.6704    0.1625 C   0  0  0  0  0  0  0  0  0  0  0  0
    1.8331   -2.1529   -2.2044 C   0  0  0  0  0  0  0  0  0  0  0  0
    0.2531   -3.4811   -0.8201 C   0  0  0  0  0  0  0  0  0  0  0  0
    1.2441   -2.3096   -0.7960 N   0  3  0  0  0  0  0  0  0  0  0  0
    0.1608    1.8718   -1.8932 H   0  0  0  0  0  0  0  0  0  0  0  0
   -0.7350    2.6480   -0.5890 H   0  0  0  0  0  0  0  0  0  0  0  0
   -2.3574    1.2839    0.8324 H   0  0  0  0  0  0  0  0  0  0  0  0
   -2.5817   -0.4340    0.5092 H   0  0  0  0  0  0  0  0  0  0  0  0
    1.1219    0.9737    2.2152 H   0  0  0  0  0  0  0  0  0  0  0  0
   -0.1664    2.1164    1.8412 H   0  0  0  0  0  0  0  0  0  0  0  0
   -1.2954   -1.5521   -1.3838 H   0  0  0  0  0  0  0  0  0  0  0  0
   -0.1728   -0.6083   -2.3665 H   0  0  0  0  0  0  0  0  0  0  0  0
    2.0303    0.2286   -1.3518 H   0  0  0  0  0  0  0  0  0  0  0  0
    2.4234   -0.1389    0.3296 H   0  0  0  0  0  0  0  0  0  0  0  0
    0.7920   -1.5104    1.7586 H   0  0  0  0  0  0  0  0  0  0  0  0
   -0.7236   -2.0865    1.0604 H   0  0  0  0  0  0  0  0  0  0  0  0
   -2.0792    0.8039   -1.6020 H   0  0  0  0  0  0  0  0  0  0  0  0
    1.6239    2.2108    0.1036 H   0  0  0  0  0  0  0  0  0  0  0  0
   -1.1179   -0.0943    2.5054 H   0  0  0  0  0  0  0  0  0  0  0  0
    2.8464   -3.5926   -0.1979 H   0  0  0  0  0  0  0  0  0  0  0  0
    3.1025   -1.8461    0.1545 H   0  0  0  0  0  0  0  0  0  0  0  0
    1.9580   -2.8083    1.1568 H   0  0  0  0  0  0  0  0  0  0  0  0
    2.3143   -3.0954   -2.4719 H   0  0  0  0  0  0  0  0  0  0  0  0
    1.0120   -1.9238   -2.8864 H   0  0  0  0  0  0  0  0  0  0  0  0
    2.5578   -1.3369   -2.1745 H   0  0  0  0  0  0  0  0  0  0  0  0
    0.7964   -4.3715   -1.1418 H   0  0  0  0  0  0  0  0  0  0  0  0
   -0.1416   -3.6057    0.1901 H   0  0  0  0  0  0  0  0  0  0  0  0
   -0.5426   -3.2312   -1.5244 H   0  0  0  0  0  0  0  0  0  0  0  0
  1  7  1  0  0  0  0
  1  8  1  0  0  0  0
  2  7  1  0  0  0  0
  2  9  1  0  0  0  0
  3  8  1  0  0  0  0
  3  9  1  0  0  0  0
  4  7  1  0  0  0  0
  4 10  1  0  0  0  0
  5  8  1  0  0  0  0
  5 10  1  0  0  0  0
  6  9  1  0  0  0  0
  6 10  1  0  0  0  0
 10 14  1  0  0  0  0
 11 14  1  0  0  0  0
 12 14  1  0  0  0  0
 13 14  1  0  0  0  0
  1 15  1  0  0  0  0
  1 16  1  0  0  0  0
  2 17  1  0  0  0  0
  2 18  1  0  0  0  0
  3 19  1  0  0  0  0
  3 20  1  0  0  0  0
  4 21  1  0  0  0  0
  4 22  1  0  0  0  0
  5 23  1  0  0  0  0
  5 24  1  0  0  0  0
  6 25  1  0  0  0  0
  6 26  1  0  0  0  0
  7 27  1  0  0  0  0
  8 28  1  0  0  0  0
  9 29  1  0  0  0  0
 11 30  1  0  0  0  0
 11 31  1  0  0  0  0
 11 32  1  0  0  0  0
 12 33  1  0  0  0  0
 12 34  1  0  0  0  0
 12 35  1  0  0  0  0
 13 36  1  0  0  0  0
 13 37  1  0  0  0  0
 13 38  1  0  0  0  0
M  CHG  1  14   1
M  END
$$$$
