
  -OEChem-07191912213D

 24 24  0     1  0  0  0  0  0999 V2000
   -0.6719   -0.2445    1.2967 C   0  0  0  0  0  0  0  0  0  0  0  0
   -0.3346    1.1749    0.8368 C   0  0  0  0  0  0  0  0  0  0  0  0
    0.3349   -1.1750   -0.8366 C   0  0  0  0  0  0  0  0  0  0  0  0
    0.6721    0.2444   -1.2966 C   0  0  0  0  0  0  0  0  0  0  0  0
   -0.8728   -1.1715    0.0991 C   0  0  1  0  0  0  0  0  0  0  0  0
    0.8728    1.1716   -0.0991 C   0  0  1  0  0  0  0  0  0  0  0  0
   -1.1008   -2.5548    0.5949 N   0  3  0  0  0  0  0  0  0  0  0  0
    1.1003    2.5549   -0.5951 N   0  3  0  0  0  0  0  0  0  0  0  0
    0.1424   -0.6157    1.9323 H   0  0  0  0  0  0  0  0  0  0  0  0
   -1.5781   -0.2192    1.9136 H   0  0  0  0  0  0  0  0  0  0  0  0
   -1.2087    1.6014    0.3279 H   0  0  0  0  0  0  0  0  0  0  0  0
   -0.1333    1.8013    1.7140 H   0  0  0  0  0  0  0  0  0  0  0  0
    0.1347   -1.8019   -1.7136 H   0  0  0  0  0  0  0  0  0  0  0  0
    1.2091   -1.6016   -0.3277 H   0  0  0  0  0  0  0  0  0  0  0  0
    1.5777    0.2193   -1.9142 H   0  0  0  0  0  0  0  0  0  0  0  0
   -0.1423    0.6155   -1.9324 H   0  0  0  0  0  0  0  0  0  0  0  0
   -1.7792   -0.8921   -0.4505 H   0  0  0  0  0  0  0  0  0  0  0  0
    1.7794    0.8929    0.4504 H   0  0  0  0  0  0  0  0  0  0  0  0
   -1.6862   -2.5477    1.4354 H   0  0  0  0  0  0  0  0  0  0  0  0
   -0.2120   -3.0074    0.8291 H   0  0  0  0  0  0  0  0  0  0  0  0
   -1.5706   -3.1229   -0.1164 H   0  0  0  0  0  0  0  0  0  0  0  0
    2.0416    2.8778   -0.3524 H   0  0  0  0  0  0  0  0  0  0  0  0
    0.4240    3.2042   -0.1820 H   0  0  0  0  0  0  0  0  0  0  0  0
    1.0014    2.5966   -1.6138 H   0  0  0  0  0  0  0  0  0  0  0  0
  1  2  1  0  0  0  0
  1  5  1  0  0  0  0
  2  6  1  0  0  0  0
  3  4  1  0  0  0  0
  3  5  1  0  0  0  0
  4  6  1  0  0  0  0
  5  7  1  0  0  0  0
  6  8  1  0  0  0  0
  1  9  1  0  0  0  0
  1 10  1  0  0  0  0
  2 11  1  0  0  0  0
  2 12  1  0  0  0  0
  3 13  1  0  0  0  0
  3 14  1  0  0  0  0
  4 15  1  0  0  0  0
  4 16  1  0  0  0  0
  5 17  1  0  0  0  0
  6 18  1  0  0  0  0
  7 19  1  0  0  0  0
  7 20  1  0  0  0  0
  7 21  1  0  0  0  0
  8 22  1  0  0  0  0
  8 23  1  0  0  0  0
  8 24  1  0  0  0  0
M  CHG  2   7   1   8   1
M  END
$$$$
