MGLab36
  -OEChem-09261916123D

214225  0     1  0  0  0  0  0999 V2000
   25.3430  110.1360   33.1190 C   0  0  2  0  0  0  0  0  0  0  0  0
   24.9320  110.0370   34.5070 O   0  0  0  0  0  0  0  0  0  0  0  0
   25.0520  108.7970   32.3850 C   0  0  2  0  0  0  0  0  0  0  0  0
   23.6450  108.5630   32.3040 O   0  0  0  0  0  0  0  0  0  0  0  0
   25.7400  107.6550   33.1530 C   0  0  1  0  0  0  0  0  0  0  0  0
   25.4770  106.4220   32.4840 O   0  0  0  0  0  0  0  0  0  0  0  0
   27.2550  107.9090   33.2500 C   0  0  1  0  0  0  0  0  0  0  0  0
   27.5480  109.2800   33.8840 C   0  0  2  0  0  0  0  0  0  0  0  0
   26.7800  110.3150   33.1620 O   0  0  0  0  0  0  0  0  0  0  0  0
   29.0350  109.6360   33.7460 C   0  0  0  0  0  0  0  0  0  0  0  0
   29.3700  109.8730   32.3880 O   0  0  0  0  0  0  0  0  0  0  0  0
   24.8610  110.9650   32.6130 H   0  0  0  0  0  0  0  0  0  0  0  0
   25.4590  108.8350   31.3740 H   0  0  0  0  0  0  0  0  0  0  0  0
   23.2950  108.4410   33.2120 H   0  0  0  0  0  0  0  0  0  0  0  0
   25.3300  107.6050   34.1640 H   0  0  0  0  0  0  0  0  0  0  0  0
   24.5580  106.4770   32.1800 H   0  0  0  0  0  0  0  0  0  0  0  0
   27.6840  107.8900   32.2460 H   0  0  0  0  0  0  0  0  0  0  0  0
   27.2900  109.2430   34.9440 H   0  0  0  0  0  0  0  0  0  0  0  0
   29.2320  110.5390   34.3250 H   0  0  0  0  0  0  0  0  0  0  0  0
   29.6460  108.8240   34.1410 H   0  0  0  0  0  0  0  0  0  0  0  0
   28.7310  110.5150   32.0520 H   0  0  0  0  0  0  0  0  0  0  0  0
   21.7150  111.1190   36.9940 C   0  0  2  0  0  0  0  0  0  0  0  0
   22.6410  110.8570   38.0760 O   0  0  0  0  0  0  0  0  0  0  0  0
   21.5310  109.8260   36.1530 C   0  0  2  0  0  0  0  0  0  0  0  0
   20.9500  108.7840   36.9440 O   0  0  0  0  0  0  0  0  0  0  0  0
   22.9040  109.3690   35.6330 C   0  0  1  0  0  0  0  0  0  0  0  0
   22.7090  108.2050   34.8340 O   0  0  0  0  0  0  0  0  0  0  0  0
   23.5820  110.4860   34.8200 C   0  0  1  0  0  0  0  0  0  0  0  0
   23.6990  111.7700   35.6590 C   0  0  2  0  0  0  0  0  0  0  0  0
   22.3620  112.1160   36.1660 O   0  0  0  0  0  0  0  0  0  0  0  0
   24.1970  112.9550   34.8210 C   0  0  0  0  0  0  0  0  0  0  0  0
   23.3090  113.2250   33.7480 O   0  0  0  0  0  0  0  0  0  0  0  0
   20.7550  111.4690   37.3550 H   0  0  0  0  0  0  0  0  0  0  0  0
   20.8830  110.0270   35.2990 H   0  0  0  0  0  0  0  0  0  0  0  0
   20.7690  109.1260   37.8420 H   0  0  0  0  0  0  0  0  0  0  0  0
   23.5400  109.1170   36.4840 H   0  0  0  0  0  0  0  0  0  0  0  0
   22.1120  107.6410   35.3510 H   0  0  0  0  0  0  0  0  0  0  0  0
   22.9780  110.6850   33.9330 H   0  0  0  0  0  0  0  0  0  0  0  0
   24.4100  111.5970   36.4680 H   0  0  0  0  0  0  0  0  0  0  0  0
   24.2700  113.8330   35.4640 H   0  0  0  0  0  0  0  0  0  0  0  0
   25.1910  112.7290   34.4290 H   0  0  0  0  0  0  0  0  0  0  0  0
   22.4490  113.4310   34.1350 H   0  0  0  0  0  0  0  0  0  0  0  0
   22.6100  110.8350   42.2690 C   0  0  2  0  0  0  0  0  0  0  0  0
   23.5830  109.7710   42.0940 O   0  0  0  0  0  0  0  0  0  0  0  0
   21.2720  110.4500   41.5750 C   0  0  2  0  0  0  0  0  0  0  0  0
   20.6770  109.3230   42.2230 O   0  0  0  0  0  0  0  0  0  0  0  0
   21.5580  110.1230   40.1000 C   0  0  1  0  0  0  0  0  0  0  0  0
   20.3320  109.7810   39.4570 O   0  0  0  0  0  0  0  0  0  0  0  0
   22.2270  111.3160   39.3940 C   0  0  1  0  0  0  0  0  0  0  0  0
   23.4940  111.7640   40.1430 C   0  0  2  0  0  0  0  0  0  0  0  0
   23.1610  111.9740   41.5640 O   0  0  0  0  0  0  0  0  0  0  0  0
   24.0110  113.1000   39.5920 C   0  0  0  0  0  0  0  0  0  0  0  0
   23.1190  114.1550   39.9140 O   0  0  0  0  0  0  0  0  0  0  0  0
   22.4480  111.0650   43.3160 H   0  0  0  0  0  0  0  0  0  0  0  0
   20.5780  111.2900   41.6210 H   0  0  0  0  0  0  0  0  0  0  0  0
   21.2550  108.5450   42.0810 H   0  0  0  0  0  0  0  0  0  0  0  0
   22.2360  109.2680   40.0490 H   0  0  0  0  0  0  0  0  0  0  0  0
   19.8320  109.2530   40.0980 H   0  0  0  0  0  0  0  0  0  0  0  0
   21.5240  112.1510   39.3550 H   0  0  0  0  0  0  0  0  0  0  0  0
   24.2680  111.0060   40.0120 H   0  0  0  0  0  0  0  0  0  0  0  0
   24.9840  113.3080   40.0390 H   0  0  0  0  0  0  0  0  0  0  0  0
   24.1290  113.0320   38.5090 H   0  0  0  0  0  0  0  0  0  0  0  0
   22.9540  114.1000   40.8640 H   0  0  0  0  0  0  0  0  0  0  0  0
   25.0490  106.4540   44.2670 C   0  0  2  0  0  0  0  0  0  0  0  0
   26.1430  106.4100   43.3170 O   0  0  0  0  0  0  0  0  0  0  0  0
   23.7030  106.2640   43.5120 C   0  0  2  0  0  0  0  0  0  0  0  0
   23.6620  104.9890   42.8630 O   0  0  0  0  0  0  0  0  0  0  0  0
   23.5570  107.3770   42.4620 C   0  0  1  0  0  0  0  0  0  0  0  0
   22.3140  107.1920   41.7910 O   0  0  0  0  0  0  0  0  0  0  0  0
   23.6260  108.7570   43.1400 C   0  0  1  0  0  0  0  0  0  0  0  0
   24.9590  108.9050   43.8920 C   0  0  2  0  0  0  0  0  0  0  0  0
   25.0790  107.7870   44.8380 O   0  0  0  0  0  0  0  0  0  0  0  0
   25.0080  110.2070   44.7060 C   0  0  0  0  0  0  0  0  0  0  0  0
   23.9590  110.2500   45.6600 O   0  0  0  0  0  0  0  0  0  0  0  0
   25.1510  105.6990   45.0370 H   0  0  0  0  0  0  0  0  0  0  0  0
   22.8710  106.3320   44.2130 H   0  0  0  0  0  0  0  0  0  0  0  0
   24.4550  104.4790   43.1160 H   0  0  0  0  0  0  0  0  0  0  0  0
   24.3710  107.2960   41.7390 H   0  0  0  0  0  0  0  0  0  0  0  0
   22.2880  106.2470   41.5700 H   0  0  0  0  0  0  0  0  0  0  0  0
   22.8000  108.8380   43.8490 H   0  0  0  0  0  0  0  0  0  0  0  0
   25.7750  108.9170   43.1680 H   0  0  0  0  0  0  0  0  0  0  0  0
   25.9700  110.2630   45.2190 H   0  0  0  0  0  0  0  0  0  0  0  0
   24.9260  111.0600   44.0300 H   0  0  0  0  0  0  0  0  0  0  0  0
   24.0800  109.4970   46.2510 H   0  0  0  0  0  0  0  0  0  0  0  0
   29.4710  103.8590   42.7090 C   0  0  2  0  0  0  0  0  0  0  0  0
   29.2230  104.0200   41.2870 O   0  0  0  0  0  0  0  0  0  0  0  0
   28.2190  103.2370   43.3840 C   0  0  2  0  0  0  0  0  0  0  0  0
   27.9670  101.9490   42.8330 O   0  0  0  0  0  0  0  0  0  0  0  0
   27.0040  104.1490   43.1370 C   0  0  1  0  0  0  0  0  0  0  0  0
   25.8630  103.5590   43.7580 O   0  0  0  0  0  0  0  0  0  0  0  0
   27.2690  105.5610   43.6910 C   0  0  1  0  0  0  0  0  0  0  0  0
   28.5310  106.1440   43.0390 C   0  0  2  0  0  0  0  0  0  0  0  0
   29.6450  105.1990   43.2370 O   0  0  0  0  0  0  0  0  0  0  0  0
   28.9350  107.4650   43.7120 C   0  0  0  0  0  0  0  0  0  0  0  0
   29.4140  107.2310   45.0260 O   0  0  0  0  0  0  0  0  0  0  0  0
   30.3420  103.2450   42.9020 H   0  0  0  0  0  0  0  0  0  0  0  0
   28.3780  103.1440   44.4590 H   0  0  0  0  0  0  0  0  0  0  0  0
   27.7470  102.0920   41.8910 H   0  0  0  0  0  0  0  0  0  0  0  0
   26.8250  104.2240   42.0620 H   0  0  0  0  0  0  0  0  0  0  0  0
   25.9180  102.6100   43.5680 H   0  0  0  0  0  0  0  0  0  0  0  0
   27.4190  105.5070   44.7710 H   0  0  0  0  0  0  0  0  0  0  0  0
   28.3310  106.3300   41.9830 H   0  0  0  0  0  0  0  0  0  0  0  0
   29.7280  107.9270   43.1230 H   0  0  0  0  0  0  0  0  0  0  0  0
   28.0800  108.1420   43.7420 H   0  0  0  0  0  0  0  0  0  0  0  0
   30.0680  106.5230   44.9610 H   0  0  0  0  0  0  0  0  0  0  0  0
   31.2410  103.7750   37.5810 C   0  0  2  0  0  0  0  0  0  0  0  0
   31.9343  103.5475   36.7712 H   0  0  0  0  0  0  0  0  0  0  0  0
   30.2110  104.6940   37.1250 O   0  0  0  0  0  0  0  0  0  0  0  0
   30.5980  102.4620   38.0900 C   0  0  2  0  0  0  0  0  0  0  0  0
   31.3582  101.8046   38.5118 H   0  0  0  0  0  0  0  0  0  0  0  0
   29.9870  101.7740   36.9960 O   0  0  0  0  0  0  0  0  0  0  0  0
   29.3178  102.3542   36.6256 H   0  0  0  0  0  0  0  0  0  0  0  0
   29.5800  102.7910   39.2070 C   0  0  2  0  0  0  0  0  0  0  0  0
   28.7960  103.4557   38.8442 H   0  0  0  0  0  0  0  0  0  0  0  0
   30.2690  103.5490   40.3690 C   0  0  1  0  0  0  0  0  0  0  0  0
   31.0140  104.7960   39.8330 C   0  0  2  0  0  0  0  0  0  0  0  0
   30.2408  105.5102   39.5499 H   0  0  0  0  0  0  0  0  0  0  0  0
   31.8770  104.4090   38.7080 O   0  0  0  0  0  0  0  0  0  0  0  0
   31.9470  105.4250   40.8780 C   0  0  0  0  0  0  0  0  0  0  0  0
   31.3532  105.7647   41.7266 H   0  0  0  0  0  0  0  0  0  0  0  0
   32.4606  106.2757   40.4302 H   0  0  0  0  0  0  0  0  0  0  0  0
   32.9120  104.4880   41.3330 O   0  0  0  0  0  0  0  0  0  0  0  0
   32.4383  103.7494   41.7225 H   0  0  0  0  0  0  0  0  0  0  0  0
   28.9536  101.5540   39.6580 N   0  0  0  0  0  0  0  0  0  0  0  0
   29.5489  100.8553   40.0933 H   0  0  0  0  0  0  0  0  0  0  0  0
   28.2697   97.7945   30.7448 C   0  0  0  0  0  0  0  0  0  0  0  0
   29.3588   97.6883   30.8405 H   0  0  0  0  0  0  0  0  0  0  0  0
   28.0303   98.7920   31.1305 H   0  0  0  0  0  0  0  0  0  0  0  0
   27.9135   97.7697   29.2548 C   0  0  0  0  0  0  0  0  0  0  0  0
   26.9783   98.3214   29.0939 H   0  0  0  0  0  0  0  0  0  0  0  0
   28.6752   98.3321   28.7002 H   0  0  0  0  0  0  0  0  0  0  0  0
   27.7462   96.3619   28.6851 C   0  0  1  0  0  0  0  0  0  0  0  0
   26.6824   96.1144   28.6089 H   0  0  0  0  0  0  0  0  0  0  0  0
   28.2585   96.3209   27.3554 O   0  0  0  0  0  0  0  0  0  0  0  0
   29.2140   96.4977   27.3974 H   0  0  0  0  0  0  0  0  0  0  0  0
   28.4463   95.3160   29.5378 C   0  0  0  0  0  0  0  0  0  0  0  0
   28.3299   94.3259   29.0776 H   0  0  0  0  0  0  0  0  0  0  0  0
   29.5280   95.5096   29.5158 H   0  0  0  0  0  0  0  0  0  0  0  0
   27.9341   95.2741   30.9946 C   0  0  1  0  0  0  0  0  0  0  0  0
   27.0212   94.6614   30.9983 H   0  0  0  0  0  0  0  0  0  0  0  0
   28.9708   94.5225   31.8317 C   0  0  0  0  0  0  0  0  0  0  0  0
   29.1870   93.5440   31.3819 H   0  0  0  0  0  0  0  0  0  0  0  0
   29.9286   95.0608   31.8042 H   0  0  0  0  0  0  0  0  0  0  0  0
   28.5377   94.3032   33.2792 C   0  0  1  0  0  0  0  0  0  0  0  0
   27.8851   93.4232   33.3287 H   0  0  0  0  0  0  0  0  0  0  0  0
   29.7133   93.9644   34.0148 O   0  0  0  0  0  0  0  0  0  0  0  0
   30.3192   94.7240   33.9774 H   0  0  0  0  0  0  0  0  0  0  0  0
   27.7693   95.5010   33.8956 C   0  0  1  0  0  0  0  0  0  0  0  0
   26.7052   95.2711   33.7696 H   0  0  0  0  0  0  0  0  0  0  0  0
   28.0466   95.6875   35.3975 C   0  0  2  0  0  0  0  0  0  0  0  0
   29.1285   95.8582   35.5013 H   0  0  0  0  0  0  0  0  0  0  0  0
   27.7172   94.5225   36.3269 C   0  0  0  0  0  0  0  0  0  0  0  0
   26.7362   94.0928   36.0946 H   0  0  0  0  0  0  0  0  0  0  0  0
   28.4507   93.7131   36.2669 H   0  0  0  0  0  0  0  0  0  0  0  0
   27.7092   95.1511   37.7285 C   0  0  0  0  0  0  0  0  0  0  0  0
   26.8192   94.8181   38.2663 H   0  0  0  0  0  0  0  0  0  0  0  0
   28.5765   94.8134   38.3080 H   0  0  0  0  0  0  0  0  0  0  0  0
   27.7804   96.6903   37.5255 C   0  0  2  0  0  0  0  0  0  0  0  0
   28.8573   96.9241   37.5430 H   0  0  0  0  0  0  0  0  0  0  0  0
   27.1940   97.5076   38.7154 C   0  0  1  0  0  0  0  0  0  0  0  0
   27.7773   97.1922   39.5932 H   0  0  0  0  0  0  0  0  0  0  0  0
   27.4438   99.0167   38.5310 C   0  0  0  0  0  0  0  0  0  0  0  0
   28.4673   99.1713   38.1680 H   0  0  0  0  0  0  0  0  0  0  0  0
   26.7737   99.4108   37.7588 H   0  0  0  0  0  0  0  0  0  0  0  0
   27.2480   99.8500   39.8002 C   0  0  0  0  0  0  0  0  0  0  0  0
   26.2089   99.8257   40.1439 H   0  0  0  0  0  0  0  0  0  0  0  0
   27.8761   99.4743   40.6154 H   0  0  0  0  0  0  0  0  0  0  0  0
   27.6036  101.2886   39.4893 C   0  0  0  0  0  0  0  0  0  0  0  0
   25.7277   97.2426   39.0750 C   0  0  0  0  0  0  0  0  0  0  0  0
   25.5134   97.6121   40.0841 H   0  0  0  0  0  0  0  0  0  0  0  0
   25.4778   96.1801   39.0810 H   0  0  0  0  0  0  0  0  0  0  0  0
   25.0375   97.7549   38.4008 H   0  0  0  0  0  0  0  0  0  0  0  0
   27.3110   96.8926   36.0467 C   0  0  2  0  0  0  0  0  0  0  0  0
   25.7724   96.7913   35.9197 C   0  0  0  0  0  0  0  0  0  0  0  0
   25.2976   97.7216   36.2465 H   0  0  0  0  0  0  0  0  0  0  0  0
   25.3532   95.9750   36.5153 H   0  0  0  0  0  0  0  0  0  0  0  0
   25.4411   96.6264   34.8913 H   0  0  0  0  0  0  0  0  0  0  0  0
   27.7956   98.1703   35.3230 C   0  0  1  0  0  0  0  0  0  0  0  0
   27.2564   99.0432   35.7015 H   0  0  0  0  0  0  0  0  0  0  0  0
   29.1762   98.4380   35.5597 O   0  0  0  0  0  0  0  0  0  0  0  0
   29.7114   97.8142   35.0436 H   0  0  0  0  0  0  0  0  0  0  0  0
   27.5388   98.0960   33.8068 C   0  0  0  0  0  0  0  0  0  0  0  0
   26.4620   98.2020   33.6522 H   0  0  0  0  0  0  0  0  0  0  0  0
   28.0091   98.9689   33.3387 H   0  0  0  0  0  0  0  0  0  0  0  0
   28.0639   96.8116   33.1017 C   0  0  2  0  0  0  0  0  0  0  0  0
   29.1589   96.9188   33.0831 H   0  0  0  0  0  0  0  0  0  0  0  0
   27.5826   96.6877   31.5904 C   0  0  1  0  0  0  0  0  0  0  0  0
   26.0434   96.8809   31.4887 C   0  0  0  0  0  0  0  0  0  0  0  0
   25.7537   97.9250   31.6470 H   0  0  0  0  0  0  0  0  0  0  0  0
   25.5088   96.2671   32.2197 H   0  0  0  0  0  0  0  0  0  0  0  0
   25.6535   96.5999   30.5062 H   0  0  0  0  0  0  0  0  0  0  0  0
   26.7627  102.0822   39.0726 O   0  0  0  0  0  0  0  0  0  0  0  0
   30.9810  102.8730   40.8440 H   0  0  0  0  0  0  0  0  0  0  0  0
   28.3470  105.7220   33.4550 C   0  0  2  0  0  0  0  0  0  0  0  0
   27.8120  106.8860   34.1260 O   0  0  0  0  0  0  0  0  0  0  0  0
   27.8410  104.4350   34.1640 C   0  0  2  0  0  0  0  0  0  0  0  0
   26.4120  104.3550   34.1040 O   0  0  0  0  0  0  0  0  0  0  0  0
   28.3010  104.4480   35.6320 C   0  0  1  0  0  0  0  0  0  0  0  0
   27.8540  103.2360   36.2360 O   0  0  0  0  0  0  0  0  0  0  0  0
   29.8340  104.5830   35.7130 C   0  0  1  0  0  0  0  0  0  0  0  0
   30.2870  105.8630   34.9920 C   0  0  2  0  0  0  0  0  0  0  0  0
   29.7830  105.8100   33.6110 O   0  0  0  0  0  0  0  0  0  0  0  0
   31.8170  105.9630   34.9170 C   0  0  0  0  0  0  0  0  0  0  0  0
   32.3580  104.8790   34.1790 O   0  0  0  0  0  0  0  0  0  0  0  0
   28.0690  105.6970   32.4080 H   0  0  0  0  0  0  0  0  0  0  0  0
   28.2640  103.5550   33.6770 H   0  0  0  0  0  0  0  0  0  0  0  0
   26.0720  105.1100   33.5850 H   0  0  0  0  0  0  0  0  0  0  0  0
   27.8440  105.2970   36.1440 H   0  0  0  0  0  0  0  0  0  0  0  0
   26.9040  103.1920   36.0470 H   0  0  0  0  0  0  0  0  0  0  0  0
   30.2840  103.7210   35.2180 H   0  0  0  0  0  0  0  0  0  0  0  0
   29.9080  106.7300   35.5360 H   0  0  0  0  0  0  0  0  0  0  0  0
   32.0830  106.9030   34.4280 H   0  0  0  0  0  0  0  0  0  0  0  0
   32.2330  105.9690   35.9260 H   0  0  0  0  0  0  0  0  0  0  0  0
   31.9810  104.9250   33.2920 H   0  0  0  0  0  0  0  0  0  0  0  0
  1  2  1  0  0  0  0
  1  3  1  0  0  0  0
  1  9  1  0  0  0  0
  1 12  1  0  0  0  0
  2 28  1  0  0  0  0
  3  4  1  0  0  0  0
  3  5  1  0  0  0  0
  3 13  1  0  0  0  0
  4 14  1  0  0  0  0
  5  6  1  0  0  0  0
  5  7  1  0  0  0  0
  5 15  1  0  0  0  0
  6 16  1  0  0  0  0
  7  8  1  0  0  0  0
  7 17  1  0  0  0  0
  7195  1  0  0  0  0
  8  9  1  0  0  0  0
  8 10  1  0  0  0  0
  8 18  1  0  0  0  0
 10 11  1  0  0  0  0
 10 19  1  0  0  0  0
 10 20  1  0  0  0  0
 11 21  1  0  0  0  0
 22 23  1  0  0  0  0
 22 24  1  0  0  0  0
 22 30  1  0  0  0  0
 22 33  1  0  0  0  0
 23 49  1  0  0  0  0
 24 25  1  0  0  0  0
 24 26  1  0  0  0  0
 24 34  1  0  0  0  0
 25 35  1  0  0  0  0
 26 27  1  0  0  0  0
 26 28  1  0  0  0  0
 26 36  1  0  0  0  0
 27 37  1  0  0  0  0
 28 29  1  0  0  0  0
 28 38  1  0  0  0  0
 29 30  1  0  0  0  0
 29 31  1  0  0  0  0
 29 39  1  0  0  0  0
 31 32  1  0  0  0  0
 31 40  1  0  0  0  0
 31 41  1  0  0  0  0
 32 42  1  0  0  0  0
 43 44  1  0  0  0  0
 43 45  1  0  0  0  0
 43 51  1  0  0  0  0
 43 54  1  0  0  0  0
 44 70  1  0  0  0  0
 45 46  1  0  0  0  0
 45 47  1  0  0  0  0
 45 55  1  0  0  0  0
 46 56  1  0  0  0  0
 47 48  1  0  0  0  0
 47 49  1  0  0  0  0
 47 57  1  0  0  0  0
 48 58  1  0  0  0  0
 49 50  1  0  0  0  0
 49 59  1  0  0  0  0
 50 51  1  0  0  0  0
 50 52  1  0  0  0  0
 50 60  1  0  0  0  0
 52 53  1  0  0  0  0
 52 61  1  0  0  0  0
 52 62  1  0  0  0  0
 53 63  1  0  0  0  0
 64 65  1  0  0  0  0
 64 66  1  0  0  0  0
 64 72  1  0  0  0  0
 64 75  1  0  0  0  0
 65 91  1  0  0  0  0
 66 67  1  0  0  0  0
 66 68  1  0  0  0  0
 66 76  1  0  0  0  0
 67 77  1  0  0  0  0
 68 69  1  0  0  0  0
 68 70  1  0  0  0  0
 68 78  1  0  0  0  0
 69 79  1  0  0  0  0
 70 71  1  0  0  0  0
 70 80  1  0  0  0  0
 71 72  1  0  0  0  0
 71 73  1  0  0  0  0
 71 81  1  0  0  0  0
 73 74  1  0  0  0  0
 73 82  1  0  0  0  0
 73 83  1  0  0  0  0
 74 84  1  0  0  0  0
 85 86  1  0  0  0  0
 85 87  1  0  0  0  0
 85 93  1  0  0  0  0
 85 96  1  0  0  0  0
 86115  1  0  0  0  0
 87 88  1  0  0  0  0
 87 89  1  0  0  0  0
 87 97  1  0  0  0  0
 88 98  1  0  0  0  0
 89 90  1  0  0  0  0
 89 91  1  0  0  0  0
 89 99  1  0  0  0  0
 90100  1  0  0  0  0
 91 92  1  0  0  0  0
 91101  1  0  0  0  0
 92 93  1  0  0  0  0
 92 94  1  0  0  0  0
 92102  1  0  0  0  0
 94 95  1  0  0  0  0
 94103  1  0  0  0  0
 94104  1  0  0  0  0
 95105  1  0  0  0  0
106107  1  0  0  0  0
106108  1  0  0  0  0
106109  1  0  0  0  0
106118  1  0  0  0  0
108200  1  0  0  0  0
109110  1  0  0  0  0
109111  1  0  0  0  0
109113  1  0  0  0  0
111112  1  0  0  0  0
113114  1  0  0  0  0
113115  1  0  0  0  0
113124  1  0  0  0  0
115116  1  0  0  0  0
115193  1  0  0  0  0
116117  1  0  0  0  0
116118  1  0  0  0  0
116119  1  0  0  0  0
119120  1  0  0  0  0
119121  1  0  0  0  0
119122  1  0  0  0  0
122123  1  0  0  0  0
124125  1  0  0  0  0
124168  1  0  0  0  0
126127  1  0  0  0  0
126128  1  0  0  0  0
126129  1  0  0  0  0
126187  1  0  0  0  0
129130  1  0  0  0  0
129131  1  0  0  0  0
129132  1  0  0  0  0
132133  1  0  0  0  0
132134  1  0  0  0  0
132136  1  0  0  0  0
134135  1  0  0  0  0
136137  1  0  0  0  0
136138  1  0  0  0  0
136139  1  0  0  0  0
139140  1  0  0  0  0
139141  1  0  0  0  0
139187  1  0  0  0  0
141142  1  0  0  0  0
141143  1  0  0  0  0
141144  1  0  0  0  0
144145  1  0  0  0  0
144146  1  0  0  0  0
144148  1  0  0  0  0
146147  1  0  0  0  0
148149  1  0  0  0  0
148150  1  0  0  0  0
148185  1  0  0  0  0
150151  1  0  0  0  0
150152  1  0  0  0  0
150173  1  0  0  0  0
152153  1  0  0  0  0
152154  1  0  0  0  0
152155  1  0  0  0  0
155156  1  0  0  0  0
155157  1  0  0  0  0
155158  1  0  0  0  0
158159  1  0  0  0  0
158160  1  0  0  0  0
158173  1  0  0  0  0
160161  1  0  0  0  0
160162  1  0  0  0  0
160169  1  0  0  0  0
162163  1  0  0  0  0
162164  1  0  0  0  0
162165  1  0  0  0  0
165166  1  0  0  0  0
165167  1  0  0  0  0
165168  1  0  0  0  0
168192  2  0  0  0  0
169170  1  0  0  0  0
169171  1  0  0  0  0
169172  1  0  0  0  0
173174  1  0  0  0  0
173178  1  0  0  0  0
174175  1  0  0  0  0
174176  1  0  0  0  0
174177  1  0  0  0  0
178179  1  0  0  0  0
178180  1  0  0  0  0
178182  1  0  0  0  0
180181  1  0  0  0  0
182183  1  0  0  0  0
182184  1  0  0  0  0
182185  1  0  0  0  0
185186  1  0  0  0  0
185187  1  0  0  0  0
187188  1  0  0  0  0
188189  1  0  0  0  0
188190  1  0  0  0  0
188191  1  0  0  0  0
194195  1  0  0  0  0
194196  1  0  0  0  0
194202  1  0  0  0  0
194205  1  0  0  0  0
196197  1  0  0  0  0
196198  1  0  0  0  0
196206  1  0  0  0  0
197207  1  0  0  0  0
198199  1  0  0  0  0
198200  1  0  0  0  0
198208  1  0  0  0  0
199209  1  0  0  0  0
200201  1  0  0  0  0
200210  1  0  0  0  0
201202  1  0  0  0  0
201203  1  0  0  0  0
201211  1  0  0  0  0
203204  1  0  0  0  0
203212  1  0  0  0  0
203213  1  0  0  0  0
204214  1  0  0  0  0
M  END
$$$$
