MGLab8
  -OEChem-09261916123D

180187  0     1  0  0  0  0  0999 V2000
   25.1890  110.7610   34.0070 C   0  0  2  0  0  0  0  0  0  0  0  0
   24.4510  110.7620   35.2640 O   0  0  0  0  0  0  0  0  0  0  0  0
   25.4240  109.3060   33.5450 C   0  0  2  0  0  0  0  0  0  0  0  0
   24.1580  108.6960   33.3910 O   0  0  0  0  0  0  0  0  0  0  0  0
   26.2810  108.5560   34.5790 C   0  0  1  0  0  0  0  0  0  0  0  0
   26.5430  107.2470   34.1120 O   0  0  0  0  0  0  0  0  0  0  0  0
   27.6150  109.2890   34.7930 C   0  0  1  0  0  0  0  0  0  0  0  0
   27.3470  110.7390   35.2460 C   0  0  2  0  0  0  0  0  0  0  0  0
   26.4840  111.3740   34.2530 O   0  0  0  0  0  0  0  0  0  0  0  0
   28.6020  111.6160   35.3650 C   0  0  0  0  0  0  0  0  0  0  0  0
   29.3320  111.6580   34.1560 O   0  0  0  0  0  0  0  0  0  0  0  0
   24.6500  111.3030   33.2410 H   0  0  0  0  0  0  0  0  0  0  0  0
   25.9400  109.2890   32.5830 H   0  0  0  0  0  0  0  0  0  0  0  0
   23.6900  108.7520   34.2280 H   0  0  0  0  0  0  0  0  0  0  0  0
   25.7440  108.4940   35.5260 H   0  0  0  0  0  0  0  0  0  0  0  0
   27.0180  107.3090   33.2810 H   0  0  0  0  0  0  0  0  0  0  0  0
   28.1770  109.2850   33.8580 H   0  0  0  0  0  0  0  0  0  0  0  0
   26.8640  110.7110   36.2240 H   0  0  0  0  0  0  0  0  0  0  0  0
   29.6460  110.7730   33.9580 H   0  0  0  0  0  0  0  0  0  0  0  0
   29.2430  111.2360   36.1580 H   0  0  0  0  0  0  0  0  0  0  0  0
   28.3010  112.6300   35.6290 H   0  0  0  0  0  0  0  0  0  0  0  0
   21.4000  112.9670   37.1830 C   0  0  2  0  0  0  0  0  0  0  0  0
   21.4750  112.0480   38.3140 O   0  0  0  0  0  0  0  0  0  0  0  0
   21.0140  112.1850   35.9080 C   0  0  2  0  0  0  0  0  0  0  0  0
   19.7620  111.5740   36.1440 O   0  0  0  0  0  0  0  0  0  0  0  0
   22.0930  111.1360   35.5810 C   0  0  1  0  0  0  0  0  0  0  0  0
   21.7630  110.4950   34.3650 O   0  0  0  0  0  0  0  0  0  0  0  0
   23.4660  111.8140   35.4350 C   0  0  1  0  0  0  0  0  0  0  0  0
   23.8110  112.5950   36.7180 C   0  0  2  0  0  0  0  0  0  0  0  0
   22.7240  113.5310   36.9790 O   0  0  0  0  0  0  0  0  0  0  0  0
   25.1010  113.4220   36.6200 C   0  0  0  0  0  0  0  0  0  0  0  0
   25.0740  114.3210   35.5300 O   0  0  0  0  0  0  0  0  0  0  0  0
   20.6760  113.7500   37.3650 H   0  0  0  0  0  0  0  0  0  0  0  0
   20.9180  112.8640   35.0600 H   0  0  0  0  0  0  0  0  0  0  0  0
   19.8390  111.0110   36.9190 H   0  0  0  0  0  0  0  0  0  0  0  0
   22.1380  110.3920   36.3770 H   0  0  0  0  0  0  0  0  0  0  0  0
   21.7280  111.1570   33.6710 H   0  0  0  0  0  0  0  0  0  0  0  0
   23.4330  112.5030   34.5890 H   0  0  0  0  0  0  0  0  0  0  0  0
   23.9270  111.8870   37.5400 H   0  0  0  0  0  0  0  0  0  0  0  0
   25.0230  113.8130   34.7170 H   0  0  0  0  0  0  0  0  0  0  0  0
   25.9530  112.7560   36.5110 H   0  0  0  0  0  0  0  0  0  0  0  0
   25.2280  113.9900   37.5420 H   0  0  0  0  0  0  0  0  0  0  0  0
   20.5820  112.0180   42.4510 C   0  0  2  0  0  0  0  0  0  0  0  0
   21.3500  110.7880   42.5940 O   0  0  0  0  0  0  0  0  0  0  0  0
   19.4120  111.7850   41.4680 C   0  0  2  0  0  0  0  0  0  0  0  0
   18.6110  110.7480   41.9980 O   0  0  0  0  0  0  0  0  0  0  0  0
   19.9570  111.4170   40.0750 C   0  0  1  0  0  0  0  0  0  0  0  0
   18.8770  111.2950   39.1710 O   0  0  0  0  0  0  0  0  0  0  0  0
   20.9130  112.5120   39.5710 C   0  0  1  0  0  0  0  0  0  0  0  0
   22.0610  112.7080   40.5820 C   0  0  2  0  0  0  0  0  0  0  0  0
   21.4610  113.0200   41.8720 O   0  0  0  0  0  0  0  0  0  0  0  0
   23.0220  113.8580   40.2510 C   0  0  0  0  0  0  0  0  0  0  0  0
   22.3400  115.0790   40.0480 O   0  0  0  0  0  0  0  0  0  0  0  0
   20.2010  112.3550   43.4070 H   0  0  0  0  0  0  0  0  0  0  0  0
   18.8040  112.6860   41.3790 H   0  0  0  0  0  0  0  0  0  0  0  0
   19.1600  109.9690   42.1170 H   0  0  0  0  0  0  0  0  0  0  0  0
   20.4890  110.4660   40.1270 H   0  0  0  0  0  0  0  0  0  0  0  0
   18.4170  112.1360   39.1300 H   0  0  0  0  0  0  0  0  0  0  0  0
   20.3560  113.4440   39.4640 H   0  0  0  0  0  0  0  0  0  0  0  0
   22.6460  111.7890   40.6320 H   0  0  0  0  0  0  0  0  0  0  0  0
   21.7680  114.9850   39.2830 H   0  0  0  0  0  0  0  0  0  0  0  0
   23.5900  113.6110   39.3570 H   0  0  0  0  0  0  0  0  0  0  0  0
   23.7240  113.9790   41.0750 H   0  0  0  0  0  0  0  0  0  0  0  0
   23.1670  108.5890   45.7260 C   0  0  2  0  0  0  0  0  0  0  0  0
   24.1960  108.1170   44.8130 O   0  0  0  0  0  0  0  0  0  0  0  0
   21.7800  108.1250   45.2290 C   0  0  2  0  0  0  0  0  0  0  0  0
   21.8050  106.7130   45.1520 O   0  0  0  0  0  0  0  0  0  0  0  0
   21.4690  108.7500   43.8580 C   0  0  1  0  0  0  0  0  0  0  0  0
   20.1660  108.3750   43.4570 O   0  0  0  0  0  0  0  0  0  0  0  0
   21.5470  110.2830   43.9420 C   0  0  1  0  0  0  0  0  0  0  0  0
   22.9490  110.7010   44.4290 C   0  0  2  0  0  0  0  0  0  0  0  0
   23.1970  110.0420   45.7080 O   0  0  0  0  0  0  0  0  0  0  0  0
   23.1340  112.2060   44.6700 C   0  0  0  0  0  0  0  0  0  0  0  0
   22.1550  112.7260   45.5460 O   0  0  0  0  0  0  0  0  0  0  0  0
   23.3390  108.2160   46.7270 H   0  0  0  0  0  0  0  0  0  0  0  0
   21.0030  108.4230   45.9340 H   0  0  0  0  0  0  0  0  0  0  0  0
   22.5240  106.4520   44.5710 H   0  0  0  0  0  0  0  0  0  0  0  0
   22.1860  108.3900   43.1180 H   0  0  0  0  0  0  0  0  0  0  0  0
   19.5420  108.6940   44.1120 H   0  0  0  0  0  0  0  0  0  0  0  0
   20.7860  110.6390   44.6380 H   0  0  0  0  0  0  0  0  0  0  0  0
   23.6770  110.3910   43.6790 H   0  0  0  0  0  0  0  0  0  0  0  0
   21.2940  112.6290   45.1320 H   0  0  0  0  0  0  0  0  0  0  0  0
   23.0890  112.7380   43.7220 H   0  0  0  0  0  0  0  0  0  0  0  0
   24.1200  112.3750   45.1040 H   0  0  0  0  0  0  0  0  0  0  0  0
   28.0800  106.4940   44.8870 C   0  0  2  0  0  0  0  0  0  0  0  0
   27.9110  106.1820   43.4710 O   0  0  0  0  0  0  0  0  0  0  0  0
   27.0040  105.7580   45.7120 C   0  0  2  0  0  0  0  0  0  0  0  0
   27.1910  104.3720   45.5100 O   0  0  0  0  0  0  0  0  0  0  0  0
   25.6020  106.2210   45.2710 C   0  0  1  0  0  0  0  0  0  0  0  0
   24.6270  105.5870   46.0740 O   0  0  0  0  0  0  0  0  0  0  0  0
   25.4670  107.7470   45.4070 C   0  0  1  0  0  0  0  0  0  0  0  0
   26.5810  108.4550   44.6110 C   0  0  2  0  0  0  0  0  0  0  0  0
   27.8620  107.9220   45.0540 O   0  0  0  0  0  0  0  0  0  0  0  0
   26.6270  109.9740   44.8300 C   0  0  0  0  0  0  0  0  0  0  0  0
   26.7710  110.3110   46.1950 O   0  0  0  0  0  0  0  0  0  0  0  0
   29.0670  106.2150   45.2330 H   0  0  0  0  0  0  0  0  0  0  0  0
   27.1250  105.9740   46.7740 H   0  0  0  0  0  0  0  0  0  0  0  0
   27.1320  104.1900   44.5690 H   0  0  0  0  0  0  0  0  0  0  0  0
   25.4350  105.9550   44.2290 H   0  0  0  0  0  0  0  0  0  0  0  0
   24.7770  105.8350   46.9890 H   0  0  0  0  0  0  0  0  0  0  0  0
   25.5380  108.0210   46.4600 H   0  0  0  0  0  0  0  0  0  0  0  0
   26.4260  108.2720   43.5470 H   0  0  0  0  0  0  0  0  0  0  0  0
   25.9980  109.9980   46.6690 H   0  0  0  0  0  0  0  0  0  0  0  0
   25.7150  110.4250   44.4480 H   0  0  0  0  0  0  0  0  0  0  0  0
   27.4700  110.3860   44.2750 H   0  0  0  0  0  0  0  0  0  0  0  0
   30.4560  105.4520   40.1660 C   0  0  2  0  0  0  0  0  0  0  0  0
   29.6080  106.3150   39.3590 O   0  0  0  0  0  0  0  0  0  0  0  0
   29.6230  104.2740   40.7060 C   0  0  2  0  0  0  0  0  0  0  0  0
   29.1400  103.5490   39.5920 O   0  0  0  0  0  0  0  0  0  0  0  0
   28.4800  104.8180   41.5810 C   0  0  2  0  0  0  0  0  0  0  0  0
   29.0530  105.6250   42.7610 C   0  0  1  0  0  0  0  0  0  0  0  0
   29.9120  106.7830   42.2030 C   0  0  2  0  0  0  0  0  0  0  0  0
   30.9210  106.2250   41.3030 O   0  0  0  0  0  0  0  0  0  0  0  0
   30.6910  107.6000   43.2450 C   0  0  0  0  0  0  0  0  0  0  0  0
   31.5000  106.7770   44.0600 O   0  0  0  0  0  0  0  0  0  0  0  0
   27.5218  103.8163   42.0645 N   0  0  0  0  0  0  0  0  0  0  0  0
   26.3228  103.5996   41.3947 C   0  0  0  0  0  0  0  0  0  0  0  0
   25.1368  103.2674   42.2876 C   0  0  0  0  0  0  0  0  0  0  0  0
   25.2653  102.0808   43.2266 C   0  0  0  0  0  0  0  0  0  0  0  0
   24.0239  101.9275   44.1119 C   0  0  0  0  0  0  0  0  0  0  0  0
   23.9523  100.7714   44.8649 N   0  0  0  0  0  0  0  0  0  0  0  0
   23.1374  100.6770   45.4637 H   0  0  0  0  0  0  0  0  0  0  0  0
   24.9018   99.6671   44.8943 C   0  0  0  0  0  0  0  0  0  0  0  0
   25.9137  100.0423   44.7161 H   0  0  0  0  0  0  0  0  0  0  0  0
   24.5265   98.5948   43.8747 C   0  0  0  0  0  0  0  0  0  0  0  0
   24.4703   99.0339   42.8716 H   0  0  0  0  0  0  0  0  0  0  0  0
   23.5241   98.2094   44.1007 H   0  0  0  0  0  0  0  0  0  0  0  0
   25.5358   97.4471   43.8770 C   0  0  0  0  0  0  0  0  0  0  0  0
   26.5385   97.8409   43.6712 H   0  0  0  0  0  0  0  0  0  0  0  0
   25.1775   96.3917   42.8303 C   0  0  0  0  0  0  0  0  0  0  0  0
   25.1354   96.8567   41.8373 H   0  0  0  0  0  0  0  0  0  0  0  0
   24.1757   95.9933   43.0343 H   0  0  0  0  0  0  0  0  0  0  0  0
   26.1929   95.2506   42.8192 C   0  0  2  0  0  0  0  0  0  0  0  0
   27.4940   95.7680   42.5389 N   0  3  0  0  0  0  0  0  0  0  0  0
   27.7356   96.4640   43.2298 H   0  0  0  0  0  0  0  0  0  0  0  0
   27.4983   96.1892   41.6209 H   0  0  0  0  0  0  0  0  0  0  0  0
   28.1685   95.0167   42.5677 H   0  0  0  0  0  0  0  0  0  0  0  0
   25.8626   94.2162   41.7720 C   0  0  0  0  0  0  0  0  0  0  0  0
   24.8859   94.2186   41.0380 O   0  0  0  0  0  0  0  0  0  0  0  0
   26.8179   93.2513   41.7535 O   0  5  0  0  0  0  0  0  0  0  0  0
   26.2055   94.8194   43.6718 H   0  0  0  0  0  0  0  0  0  0  0  0
   25.5666   96.9858   44.8716 H   0  0  0  0  0  0  0  0  0  0  0  0
   24.8729   99.2525   45.9077 H   0  0  0  0  0  0  0  0  0  0  0  0
   26.1467  103.8278   40.1962 O   0  0  0  0  0  0  0  0  0  0  0  0
   23.1370  102.7850   44.1770 O   0  0  0  0  0  0  0  0  0  0  0  0
   27.7315  103.3130   42.9193 H   0  0  0  0  0  0  0  0  0  0  0  0
   24.9164  104.1750   42.8615 H   0  0  0  0  0  0  0  0  0  0  0  0
   26.1316  102.1974   43.8848 H   0  0  0  0  0  0  0  0  0  0  0  0
   25.4132  101.1731   42.6335 H   0  0  0  0  0  0  0  0  0  0  0  0
   24.2717  103.1045   41.6313 H   0  0  0  0  0  0  0  0  0  0  0  0
   31.2910  105.0780   39.5890 H   0  0  0  0  0  0  0  0  0  0  0  0
   30.2440  103.6100   41.3080 H   0  0  0  0  0  0  0  0  0  0  0  0
   28.6230  104.1430   39.0420 H   0  0  0  0  0  0  0  0  0  0  0  0
   27.8450  105.4700   40.9810 H   0  0  0  0  0  0  0  0  0  0  0  0
   29.6580  104.9690   43.3890 H   0  0  0  0  0  0  0  0  0  0  0  0
   29.2490  107.4660   41.6720 H   0  0  0  0  0  0  0  0  0  0  0  0
   30.9290  106.1890   44.5600 H   0  0  0  0  0  0  0  0  0  0  0  0
   30.0040  108.1630   43.8700 H   0  0  0  0  0  0  0  0  0  0  0  0
   31.3300  108.3140   42.7250 H   0  0  0  0  0  0  0  0  0  0  0  0
   29.7540  108.5030   35.7730 C   0  0  2  0  0  0  0  0  0  0  0  0
   28.3030  108.5910   35.8600 O   0  0  0  0  0  0  0  0  0  0  0  0
   30.1740  107.0190   35.6950 C   0  0  2  0  0  0  0  0  0  0  0  0
   29.6020  106.4760   34.5220 O   0  0  0  0  0  0  0  0  0  0  0  0
   29.6910  106.2740   36.9530 C   0  0  1  0  0  0  0  0  0  0  0  0
   30.1520  104.9380   36.9060 O   0  0  0  0  0  0  0  0  0  0  0  0
   30.2390  106.9540   38.2200 C   0  0  1  0  0  0  0  0  0  0  0  0
   29.8600  108.4480   38.2510 C   0  0  2  0  0  0  0  0  0  0  0  0
   30.2980  109.0550   37.0010 O   0  0  0  0  0  0  0  0  0  0  0  0
   30.5310  109.2320   39.3890 C   0  0  0  0  0  0  0  0  0  0  0  0
   31.9400  109.1360   39.3430 O   0  0  0  0  0  0  0  0  0  0  0  0
   30.1300  109.0440   34.9140 H   0  0  0  0  0  0  0  0  0  0  0  0
   31.2590  106.9320   35.6290 H   0  0  0  0  0  0  0  0  0  0  0  0
   28.6510  106.5960   34.5630 H   0  0  0  0  0  0  0  0  0  0  0  0
   28.6000  106.2730   36.9840 H   0  0  0  0  0  0  0  0  0  0  0  0
   31.1120  104.9480   36.8800 H   0  0  0  0  0  0  0  0  0  0  0  0
   31.3260  106.8570   38.2340 H   0  0  0  0  0  0  0  0  0  0  0  0
   28.7790  108.5350   38.3720 H   0  0  0  0  0  0  0  0  0  0  0  0
   32.1870  108.2180   39.4730 H   0  0  0  0  0  0  0  0  0  0  0  0
   30.1810  108.8570   40.3470 H   0  0  0  0  0  0  0  0  0  0  0  0
   30.2470  110.2820   39.3090 H   0  0  0  0  0  0  0  0  0  0  0  0
  1  2  1  0  0  0  0
  1  3  1  0  0  0  0
  1  9  1  0  0  0  0
  1 12  1  0  0  0  0
  2 28  1  0  0  0  0
  3  4  1  0  0  0  0
  3  5  1  0  0  0  0
  3 13  1  0  0  0  0
  4 14  1  0  0  0  0
  5  6  1  0  0  0  0
  5  7  1  0  0  0  0
  5 15  1  0  0  0  0
  6 16  1  0  0  0  0
  7  8  1  0  0  0  0
  7 17  1  0  0  0  0
  7161  1  0  0  0  0
  8  9  1  0  0  0  0
  8 10  1  0  0  0  0
  8 18  1  0  0  0  0
 10 11  1  0  0  0  0
 10 20  1  0  0  0  0
 10 21  1  0  0  0  0
 11 19  1  0  0  0  0
 22 23  1  0  0  0  0
 22 24  1  0  0  0  0
 22 30  1  0  0  0  0
 22 33  1  0  0  0  0
 23 49  1  0  0  0  0
 24 25  1  0  0  0  0
 24 26  1  0  0  0  0
 24 34  1  0  0  0  0
 25 35  1  0  0  0  0
 26 27  1  0  0  0  0
 26 28  1  0  0  0  0
 26 36  1  0  0  0  0
 27 37  1  0  0  0  0
 28 29  1  0  0  0  0
 28 38  1  0  0  0  0
 29 30  1  0  0  0  0
 29 31  1  0  0  0  0
 29 39  1  0  0  0  0
 31 32  1  0  0  0  0
 31 41  1  0  0  0  0
 31 42  1  0  0  0  0
 32 40  1  0  0  0  0
 43 44  1  0  0  0  0
 43 45  1  0  0  0  0
 43 51  1  0  0  0  0
 43 54  1  0  0  0  0
 44 70  1  0  0  0  0
 45 46  1  0  0  0  0
 45 47  1  0  0  0  0
 45 55  1  0  0  0  0
 46 56  1  0  0  0  0
 47 48  1  0  0  0  0
 47 49  1  0  0  0  0
 47 57  1  0  0  0  0
 48 58  1  0  0  0  0
 49 50  1  0  0  0  0
 49 59  1  0  0  0  0
 50 51  1  0  0  0  0
 50 52  1  0  0  0  0
 50 60  1  0  0  0  0
 52 53  1  0  0  0  0
 52 62  1  0  0  0  0
 52 63  1  0  0  0  0
 53 61  1  0  0  0  0
 64 65  1  0  0  0  0
 64 66  1  0  0  0  0
 64 72  1  0  0  0  0
 64 75  1  0  0  0  0
 65 91  1  0  0  0  0
 66 67  1  0  0  0  0
 66 68  1  0  0  0  0
 66 76  1  0  0  0  0
 67 77  1  0  0  0  0
 68 69  1  0  0  0  0
 68 70  1  0  0  0  0
 68 78  1  0  0  0  0
 69 79  1  0  0  0  0
 70 71  1  0  0  0  0
 70 80  1  0  0  0  0
 71 72  1  0  0  0  0
 71 73  1  0  0  0  0
 71 81  1  0  0  0  0
 73 74  1  0  0  0  0
 73 83  1  0  0  0  0
 73 84  1  0  0  0  0
 74 82  1  0  0  0  0
 85 86  1  0  0  0  0
 85 87  1  0  0  0  0
 85 93  1  0  0  0  0
 85 96  1  0  0  0  0
 86111  1  0  0  0  0
 87 88  1  0  0  0  0
 87 89  1  0  0  0  0
 87 97  1  0  0  0  0
 88 98  1  0  0  0  0
 89 90  1  0  0  0  0
 89 91  1  0  0  0  0
 89 99  1  0  0  0  0
 90100  1  0  0  0  0
 91 92  1  0  0  0  0
 91101  1  0  0  0  0
 92 93  1  0  0  0  0
 92 94  1  0  0  0  0
 92102  1  0  0  0  0
 94 95  1  0  0  0  0
 94104  1  0  0  0  0
 94105  1  0  0  0  0
 95103  1  0  0  0  0
106107  1  0  0  0  0
106108  1  0  0  0  0
106113  1  0  0  0  0
106151  1  0  0  0  0
107166  1  0  0  0  0
108109  1  0  0  0  0
108110  1  0  0  0  0
108152  1  0  0  0  0
109153  1  0  0  0  0
110111  1  0  0  0  0
110116  1  0  0  0  0
110154  1  0  0  0  0
111112  1  0  0  0  0
111155  1  0  0  0  0
112113  1  0  0  0  0
112114  1  0  0  0  0
112156  1  0  0  0  0
114115  1  0  0  0  0
114158  1  0  0  0  0
114159  1  0  0  0  0
115157  1  0  0  0  0
116117  1  0  0  0  0
116146  1  0  0  0  0
117118  1  0  0  0  0
117144  2  0  0  0  0
118119  1  0  0  0  0
118147  1  0  0  0  0
118150  1  0  0  0  0
119120  1  0  0  0  0
119148  1  0  0  0  0
119149  1  0  0  0  0
120121  1  0  0  0  0
120145  2  0  0  0  0
121122  1  0  0  0  0
121123  1  0  0  0  0
123124  1  0  0  0  0
123125  1  0  0  0  0
123143  1  0  0  0  0
125126  1  0  0  0  0
125127  1  0  0  0  0
125128  1  0  0  0  0
128129  1  0  0  0  0
128130  1  0  0  0  0
128142  1  0  0  0  0
130131  1  0  0  0  0
130132  1  0  0  0  0
130133  1  0  0  0  0
133134  1  0  0  0  0
133138  1  0  0  0  0
133141  1  0  0  0  0
134135  1  0  0  0  0
134136  1  0  0  0  0
134137  1  0  0  0  0
138139  2  0  0  0  0
138140  1  0  0  0  0
160161  1  0  0  0  0
160162  1  0  0  0  0
160168  1  0  0  0  0
160171  1  0  0  0  0
162163  1  0  0  0  0
162164  1  0  0  0  0
162172  1  0  0  0  0
163173  1  0  0  0  0
164165  1  0  0  0  0
164166  1  0  0  0  0
164174  1  0  0  0  0
165175  1  0  0  0  0
166167  1  0  0  0  0
166176  1  0  0  0  0
167168  1  0  0  0  0
167169  1  0  0  0  0
167177  1  0  0  0  0
169170  1  0  0  0  0
169179  1  0  0  0  0
169180  1  0  0  0  0
170178  1  0  0  0  0
M  CHG  2 134   1 140  -1
M  END
$$$$
