MGLab19
  -OEChem-09261916123D

156163  0     1  0  0  0  0  0999 V2000
   25.4580  111.0230   33.9330 C   0  0  2  0  0  0  0  0  0  0  0  0
   24.6720  110.9680   35.1600 O   0  0  0  0  0  0  0  0  0  0  0  0
   25.7350  109.5880   33.4320 C   0  0  2  0  0  0  0  0  0  0  0  0
   24.4860  108.9670   33.2030 O   0  0  0  0  0  0  0  0  0  0  0  0
   26.5580  108.8150   34.4770 C   0  0  1  0  0  0  0  0  0  0  0  0
   26.8570  107.5260   33.9800 O   0  0  0  0  0  0  0  0  0  0  0  0
   27.8710  109.5590   34.7700 C   0  0  1  0  0  0  0  0  0  0  0  0
   27.5650  110.9900   35.2580 C   0  0  2  0  0  0  0  0  0  0  0  0
   26.7340  111.6450   34.2510 O   0  0  0  0  0  0  0  0  0  0  0  0
   28.8030  111.8760   35.4550 C   0  0  0  0  0  0  0  0  0  0  0  0
   29.5820  111.9630   34.2800 O   0  0  0  0  0  0  0  0  0  0  0  0
   24.9410  111.5840   33.1660 H   0  0  0  0  0  0  0  0  0  0  0  0
   26.2920  109.6120   32.4940 H   0  0  0  0  0  0  0  0  0  0  0  0
   23.9800  108.9910   34.0180 H   0  0  0  0  0  0  0  0  0  0  0  0
   25.9830  108.7160   35.3980 H   0  0  0  0  0  0  0  0  0  0  0  0
   27.3630  107.6210   33.1690 H   0  0  0  0  0  0  0  0  0  0  0  0
   28.4720  109.5920   33.8600 H   0  0  0  0  0  0  0  0  0  0  0  0
   27.0430  110.9250   36.2140 H   0  0  0  0  0  0  0  0  0  0  0  0
   29.9100  111.0870   34.0660 H   0  0  0  0  0  0  0  0  0  0  0  0
   29.4150  111.4780   36.2630 H   0  0  0  0  0  0  0  0  0  0  0  0
   28.4790  112.8780   35.7370 H   0  0  0  0  0  0  0  0  0  0  0  0
   21.5190  113.0490   37.0520 C   0  0  2  0  0  0  0  0  0  0  0  0
   21.6170  112.1340   38.1850 O   0  0  0  0  0  0  0  0  0  0  0  0
   21.1770  112.2530   35.7730 C   0  0  2  0  0  0  0  0  0  0  0  0
   19.9480  111.5900   35.9980 O   0  0  0  0  0  0  0  0  0  0  0  0
   22.3000  111.2500   35.4540 C   0  0  1  0  0  0  0  0  0  0  0  0
   22.0070  110.6000   34.2330 O   0  0  0  0  0  0  0  0  0  0  0  0
   23.6460  111.9820   35.3210 C   0  0  1  0  0  0  0  0  0  0  0  0
   23.9480  112.7730   36.6080 C   0  0  2  0  0  0  0  0  0  0  0  0
   22.8220  113.6650   36.8630 O   0  0  0  0  0  0  0  0  0  0  0  0
   25.2050  113.6510   36.5250 C   0  0  0  0  0  0  0  0  0  0  0  0
   25.1540  114.5500   35.4370 O   0  0  0  0  0  0  0  0  0  0  0  0
   20.7620  113.8030   37.2260 H   0  0  0  0  0  0  0  0  0  0  0  0
   21.0590  112.9290   34.9250 H   0  0  0  0  0  0  0  0  0  0  0  0
   20.0420  111.0300   36.7720 H   0  0  0  0  0  0  0  0  0  0  0  0
   22.3670  110.5070   36.2490 H   0  0  0  0  0  0  0  0  0  0  0  0
   21.9520  111.2620   33.5400 H   0  0  0  0  0  0  0  0  0  0  0  0
   23.5950  112.6690   34.4750 H   0  0  0  0  0  0  0  0  0  0  0  0
   24.0840  112.0680   37.4300 H   0  0  0  0  0  0  0  0  0  0  0  0
   25.1310  114.0420   34.6220 H   0  0  0  0  0  0  0  0  0  0  0  0
   26.0840  113.0190   36.4250 H   0  0  0  0  0  0  0  0  0  0  0  0
   25.3000  114.2220   37.4490 H   0  0  0  0  0  0  0  0  0  0  0  0
   20.6950  112.0730   42.3130 C   0  0  2  0  0  0  0  0  0  0  0  0
   21.4320  110.8230   42.4420 O   0  0  0  0  0  0  0  0  0  0  0  0
   19.5270  111.8840   41.3210 C   0  0  2  0  0  0  0  0  0  0  0  0
   18.6920  110.8650   41.8330 O   0  0  0  0  0  0  0  0  0  0  0  0
   20.0710  111.5170   39.9280 C   0  0  1  0  0  0  0  0  0  0  0  0
   18.9950  111.4290   39.0150 O   0  0  0  0  0  0  0  0  0  0  0  0
   21.0570  112.5950   39.4440 C   0  0  1  0  0  0  0  0  0  0  0  0
   22.2030  112.7540   40.4630 C   0  0  2  0  0  0  0  0  0  0  0  0
   21.6040  113.0600   41.7550 O   0  0  0  0  0  0  0  0  0  0  0  0
   23.1850  113.8910   40.1490 C   0  0  0  0  0  0  0  0  0  0  0  0
   22.5270  115.1270   39.9630 O   0  0  0  0  0  0  0  0  0  0  0  0
   20.3190  112.4050   43.2720 H   0  0  0  0  0  0  0  0  0  0  0  0
   18.9450  112.8030   41.2380 H   0  0  0  0  0  0  0  0  0  0  0  0
   19.2160  110.0680   41.9440 H   0  0  0  0  0  0  0  0  0  0  0  0
   20.5800  110.5530   39.9730 H   0  0  0  0  0  0  0  0  0  0  0  0
   18.5520  112.2790   38.9840 H   0  0  0  0  0  0  0  0  0  0  0  0
   20.5220  113.5410   39.3450 H   0  0  0  0  0  0  0  0  0  0  0  0
   22.7700  111.8230   40.5030 H   0  0  0  0  0  0  0  0  0  0  0  0
   21.9550  115.0550   39.1950 H   0  0  0  0  0  0  0  0  0  0  0  0
   23.7490  113.6460   39.2520 H   0  0  0  0  0  0  0  0  0  0  0  0
   23.8900  113.9870   40.9750 H   0  0  0  0  0  0  0  0  0  0  0  0
   23.0600  108.4750   45.5620 C   0  0  2  0  0  0  0  0  0  0  0  0
   24.1560  108.0850   44.6910 O   0  0  0  0  0  0  0  0  0  0  0  0
   21.7210  108.0180   44.9410 C   0  0  2  0  0  0  0  0  0  0  0  0
   21.7830  106.6140   44.7820 O   0  0  0  0  0  0  0  0  0  0  0  0
   21.4950  108.7200   43.5910 C   0  0  1  0  0  0  0  0  0  0  0  0
   20.2320  108.3480   43.0760 O   0  0  0  0  0  0  0  0  0  0  0  0
   21.5340  110.2470   43.7700 C   0  0  1  0  0  0  0  0  0  0  0  0
   22.8840  110.6630   44.3890 C   0  0  2  0  0  0  0  0  0  0  0  0
   23.0550  109.9270   45.6390 O   0  0  0  0  0  0  0  0  0  0  0  0
   23.0080  112.1530   44.7380 C   0  0  0  0  0  0  0  0  0  0  0  0
   21.9680  112.5820   45.5930 O   0  0  0  0  0  0  0  0  0  0  0  0
   23.1740  108.0400   46.5460 H   0  0  0  0  0  0  0  0  0  0  0  0
   20.8900  108.2590   45.6060 H   0  0  0  0  0  0  0  0  0  0  0  0
   22.5430  106.4030   44.2340 H   0  0  0  0  0  0  0  0  0  0  0  0
   22.2700  108.4180   42.8850 H   0  0  0  0  0  0  0  0  0  0  0  0
   19.5560  108.6160   43.7030 H   0  0  0  0  0  0  0  0  0  0  0  0
   20.7130  110.5490   44.4220 H   0  0  0  0  0  0  0  0  0  0  0  0
   23.6740  110.4190   43.6780 H   0  0  0  0  0  0  0  0  0  0  0  0
   21.1340  112.4940   45.1260 H   0  0  0  0  0  0  0  0  0  0  0  0
   22.9940  112.7480   43.8280 H   0  0  0  0  0  0  0  0  0  0  0  0
   23.9630  112.3190   45.2360 H   0  0  0  0  0  0  0  0  0  0  0  0
   28.0530  106.5560   44.8570 C   0  0  2  0  0  0  0  0  0  0  0  0
   27.9200  106.3780   43.4200 O   0  0  0  0  0  0  0  0  0  0  0  0
   26.9670  105.7320   45.5790 C   0  0  2  0  0  0  0  0  0  0  0  0
   27.1910  104.3700   45.2720 O   0  0  0  0  0  0  0  0  0  0  0  0
   25.5720  106.1910   45.1160 C   0  0  1  0  0  0  0  0  0  0  0  0
   24.5860  105.4960   45.8540 O   0  0  0  0  0  0  0  0  0  0  0  0
   25.3950  107.7030   45.3420 C   0  0  1  0  0  0  0  0  0  0  0  0
   26.5340  108.5070   44.6830 C   0  0  2  0  0  0  0  0  0  0  0  0
   27.8040  107.9580   45.1420 O   0  0  0  0  0  0  0  0  0  0  0  0
   26.5310  109.9990   45.0460 C   0  0  0  0  0  0  0  0  0  0  0  0
   26.5950  110.2080   46.4420 O   0  0  0  0  0  0  0  0  0  0  0  0
   29.0370  106.2660   45.2010 H   0  0  0  0  0  0  0  0  0  0  0  0
   27.0410  105.8640   46.6590 H   0  0  0  0  0  0  0  0  0  0  0  0
   27.1710  104.2660   44.3180 H   0  0  0  0  0  0  0  0  0  0  0  0
   25.4460  105.9680   44.0570 H   0  0  0  0  0  0  0  0  0  0  0  0
   24.7040  105.6980   46.7850 H   0  0  0  0  0  0  0  0  0  0  0  0
   25.3860  107.9020   46.4140 H   0  0  0  0  0  0  0  0  0  0  0  0
   26.4400  108.4250   43.5990 H   0  0  0  0  0  0  0  0  0  0  0  0
   25.8010  109.8440   46.8410 H   0  0  0  0  0  0  0  0  0  0  0  0
   25.6300  110.4670   44.6580 H   0  0  0  0  0  0  0  0  0  0  0  0
   27.3920  110.4770   44.5790 H   0  0  0  0  0  0  0  0  0  0  0  0
   30.4140  105.5550   40.1240 C   0  0  2  0  0  0  0  0  0  0  0  0
   29.6490  106.5100   39.3360 O   0  0  0  0  0  0  0  0  0  0  0  0
   29.4820  104.4230   40.6100 C   0  0  2  0  0  0  0  0  0  0  0  0
   28.9180  103.8180   39.4630 O   0  0  0  0  0  0  0  0  0  0  0  0
   28.3910  104.9990   41.5280 C   0  0  2  0  0  0  0  0  0  0  0  0
   29.0190  105.7560   42.7120 C   0  0  1  0  0  0  0  0  0  0  0  0
   29.9520  106.8650   42.1870 C   0  0  2  0  0  0  0  0  0  0  0  0
   30.9280  106.2560   41.2880 O   0  0  0  0  0  0  0  0  0  0  0  0
   30.7550  107.6050   43.2670 C   0  0  0  0  0  0  0  0  0  0  0  0
   31.5280  106.7170   44.0490 O   0  0  0  0  0  0  0  0  0  0  0  0
   27.5590  103.9160   42.0420 N   0  0  0  0  0  0  0  0  0  0  0  0
   26.2170  103.9080   42.0290 C   0  0  0  0  0  0  0  0  0  0  0  0
   25.5480  102.6830   42.6510 C   0  0  0  0  0  0  0  0  0  0  0  0
   24.4510  103.0610   43.5580 N   0  3  0  0  0  0  0  0  0  0  0  0
   25.5320  104.8220   41.5680 O   0  0  0  0  0  0  0  0  0  0  0  0
   26.2940  102.1210   43.2140 H   0  0  0  0  0  0  0  0  0  0  0  0
   25.1470  102.0570   41.8540 H   0  0  0  0  0  0  0  0  0  0  0  0
   31.2210  105.1320   39.5260 H   0  0  0  0  0  0  0  0  0  0  0  0
   24.8130  103.6420   44.3010 H   0  0  0  0  0  0  0  0  0  0  0  0
   24.0380  102.2280   43.9530 H   0  0  0  0  0  0  0  0  0  0  0  0
   23.7490  103.5720   43.0430 H   0  0  0  0  0  0  0  0  0  0  0  0
   30.0330  103.6810   41.1870 H   0  0  0  0  0  0  0  0  0  0  0  0
   28.4420  104.4980   38.9810 H   0  0  0  0  0  0  0  0  0  0  0  0
   27.7840  105.6920   40.9460 H   0  0  0  0  0  0  0  0  0  0  0  0
   29.5760  105.0530   43.3340 H   0  0  0  0  0  0  0  0  0  0  0  0
   29.2980  107.5950   41.7100 H   0  0  0  0  0  0  0  0  0  0  0  0
   31.3290  106.8940   44.9710 H   0  0  0  0  0  0  0  0  0  0  0  0
   31.4210  108.3200   42.7840 H   0  0  0  0  0  0  0  0  0  0  0  0
   30.0620  108.1370   43.9190 H   0  0  0  0  0  0  0  0  0  0  0  0
   27.8200  103.8120   43.0120 H   0  0  0  0  0  0  0  0  0  0  0  0
   29.9800  108.7520   35.8050 C   0  0  2  0  0  0  0  0  0  0  0  0
   28.5250  108.8360   35.8420 O   0  0  0  0  0  0  0  0  0  0  0  0
   30.4060  107.2710   35.7180 C   0  0  2  0  0  0  0  0  0  0  0  0
   29.8890  106.7500   34.5100 O   0  0  0  0  0  0  0  0  0  0  0  0
   29.8680  106.5020   36.9380 C   0  0  1  0  0  0  0  0  0  0  0  0
   30.3360  105.1690   36.8860 O   0  0  0  0  0  0  0  0  0  0  0  0
   30.3510  107.1590   38.2440 C   0  0  1  0  0  0  0  0  0  0  0  0
   29.9880  108.6570   38.2830 C   0  0  2  0  0  0  0  0  0  0  0  0
   30.4790  109.2810   37.0610 O   0  0  0  0  0  0  0  0  0  0  0  0
   30.6220  109.4150   39.4580 C   0  0  0  0  0  0  0  0  0  0  0  0
   32.0290  109.2870   39.4770 O   0  0  0  0  0  0  0  0  0  0  0  0
   30.3840  109.3100   34.9700 H   0  0  0  0  0  0  0  0  0  0  0  0
   31.4930  107.1870   35.6980 H   0  0  0  0  0  0  0  0  0  0  0  0
   28.9360  106.8700   34.5090 H   0  0  0  0  0  0  0  0  0  0  0  0
   28.7770  106.4970   36.9170 H   0  0  0  0  0  0  0  0  0  0  0  0
   31.2960  105.1820   36.9060 H   0  0  0  0  0  0  0  0  0  0  0  0
   31.4330  107.0470   38.3180 H   0  0  0  0  0  0  0  0  0  0  0  0
   28.9040  108.7550   38.3640 H   0  0  0  0  0  0  0  0  0  0  0  0
   32.2480  108.3610   39.6060 H   0  0  0  0  0  0  0  0  0  0  0  0
   30.2200  109.0390   40.3950 H   0  0  0  0  0  0  0  0  0  0  0  0
   30.3660  110.4720   39.3770 H   0  0  0  0  0  0  0  0  0  0  0  0
  1  2  1  0  0  0  0
  1  3  1  0  0  0  0
  1  9  1  0  0  0  0
  1 12  1  0  0  0  0
  2 28  1  0  0  0  0
  3  4  1  0  0  0  0
  3  5  1  0  0  0  0
  3 13  1  0  0  0  0
  4 14  1  0  0  0  0
  5  6  1  0  0  0  0
  5  7  1  0  0  0  0
  5 15  1  0  0  0  0
  6 16  1  0  0  0  0
  7  8  1  0  0  0  0
  7 17  1  0  0  0  0
  7137  1  0  0  0  0
  8  9  1  0  0  0  0
  8 10  1  0  0  0  0
  8 18  1  0  0  0  0
 10 11  1  0  0  0  0
 10 20  1  0  0  0  0
 10 21  1  0  0  0  0
 11 19  1  0  0  0  0
 22 23  1  0  0  0  0
 22 24  1  0  0  0  0
 22 30  1  0  0  0  0
 22 33  1  0  0  0  0
 23 49  1  0  0  0  0
 24 25  1  0  0  0  0
 24 26  1  0  0  0  0
 24 34  1  0  0  0  0
 25 35  1  0  0  0  0
 26 27  1  0  0  0  0
 26 28  1  0  0  0  0
 26 36  1  0  0  0  0
 27 37  1  0  0  0  0
 28 29  1  0  0  0  0
 28 38  1  0  0  0  0
 29 30  1  0  0  0  0
 29 31  1  0  0  0  0
 29 39  1  0  0  0  0
 31 32  1  0  0  0  0
 31 41  1  0  0  0  0
 31 42  1  0  0  0  0
 32 40  1  0  0  0  0
 43 44  1  0  0  0  0
 43 45  1  0  0  0  0
 43 51  1  0  0  0  0
 43 54  1  0  0  0  0
 44 70  1  0  0  0  0
 45 46  1  0  0  0  0
 45 47  1  0  0  0  0
 45 55  1  0  0  0  0
 46 56  1  0  0  0  0
 47 48  1  0  0  0  0
 47 49  1  0  0  0  0
 47 57  1  0  0  0  0
 48 58  1  0  0  0  0
 49 50  1  0  0  0  0
 49 59  1  0  0  0  0
 50 51  1  0  0  0  0
 50 52  1  0  0  0  0
 50 60  1  0  0  0  0
 52 53  1  0  0  0  0
 52 62  1  0  0  0  0
 52 63  1  0  0  0  0
 53 61  1  0  0  0  0
 64 65  1  0  0  0  0
 64 66  1  0  0  0  0
 64 72  1  0  0  0  0
 64 75  1  0  0  0  0
 65 91  1  0  0  0  0
 66 67  1  0  0  0  0
 66 68  1  0  0  0  0
 66 76  1  0  0  0  0
 67 77  1  0  0  0  0
 68 69  1  0  0  0  0
 68 70  1  0  0  0  0
 68 78  1  0  0  0  0
 69 79  1  0  0  0  0
 70 71  1  0  0  0  0
 70 80  1  0  0  0  0
 71 72  1  0  0  0  0
 71 73  1  0  0  0  0
 71 81  1  0  0  0  0
 73 74  1  0  0  0  0
 73 83  1  0  0  0  0
 73 84  1  0  0  0  0
 74 82  1  0  0  0  0
 85 86  1  0  0  0  0
 85 87  1  0  0  0  0
 85 93  1  0  0  0  0
 85 96  1  0  0  0  0
 86111  1  0  0  0  0
 87 88  1  0  0  0  0
 87 89  1  0  0  0  0
 87 97  1  0  0  0  0
 88 98  1  0  0  0  0
 89 90  1  0  0  0  0
 89 91  1  0  0  0  0
 89 99  1  0  0  0  0
 90100  1  0  0  0  0
 91 92  1  0  0  0  0
 91101  1  0  0  0  0
 92 93  1  0  0  0  0
 92 94  1  0  0  0  0
 92102  1  0  0  0  0
 94 95  1  0  0  0  0
 94104  1  0  0  0  0
 94105  1  0  0  0  0
 95103  1  0  0  0  0
106107  1  0  0  0  0
106108  1  0  0  0  0
106113  1  0  0  0  0
106123  1  0  0  0  0
107142  1  0  0  0  0
108109  1  0  0  0  0
108110  1  0  0  0  0
108127  1  0  0  0  0
109128  1  0  0  0  0
110111  1  0  0  0  0
110116  1  0  0  0  0
110129  1  0  0  0  0
111112  1  0  0  0  0
111130  1  0  0  0  0
112113  1  0  0  0  0
112114  1  0  0  0  0
112131  1  0  0  0  0
114115  1  0  0  0  0
114133  1  0  0  0  0
114134  1  0  0  0  0
115132  1  0  0  0  0
116117  1  0  0  0  0
116135  1  0  0  0  0
117118  1  0  0  0  0
117120  2  0  0  0  0
118119  1  0  0  0  0
118121  1  0  0  0  0
118122  1  0  0  0  0
119124  1  0  0  0  0
119125  1  0  0  0  0
119126  1  0  0  0  0
136137  1  0  0  0  0
136138  1  0  0  0  0
136144  1  0  0  0  0
136147  1  0  0  0  0
138139  1  0  0  0  0
138140  1  0  0  0  0
138148  1  0  0  0  0
139149  1  0  0  0  0
140141  1  0  0  0  0
140142  1  0  0  0  0
140150  1  0  0  0  0
141151  1  0  0  0  0
142143  1  0  0  0  0
142152  1  0  0  0  0
143144  1  0  0  0  0
143145  1  0  0  0  0
143153  1  0  0  0  0
145146  1  0  0  0  0
145155  1  0  0  0  0
145156  1  0  0  0  0
146154  1  0  0  0  0
M  CHG  1 119   1
M  END
$$$$
