MGLab35
  -OEChem-09261916123D

158165  0     1  0  0  0  0  0999 V2000
   25.7510  110.7290   34.1240 C   0  0  2  0  0  0  0  0  0  0  0  0
   24.7260  110.5010   35.1310 O   0  0  0  0  0  0  0  0  0  0  0  0
   25.9130  109.4600   33.2590 C   0  0  2  0  0  0  0  0  0  0  0  0
   24.6690  109.2090   32.6360 O   0  0  0  0  0  0  0  0  0  0  0  0
   26.3480  108.2750   34.1400 C   0  0  1  0  0  0  0  0  0  0  0  0
   26.5780  107.1460   33.3200 O   0  0  0  0  0  0  0  0  0  0  0  0
   27.6420  108.6190   34.8980 C   0  0  1  0  0  0  0  0  0  0  0  0
   27.4580  109.9060   35.7250 C   0  0  2  0  0  0  0  0  0  0  0  0
   27.0040  110.9570   34.8240 O   0  0  0  0  0  0  0  0  0  0  0  0
   28.7460  110.4130   36.3900 C   0  0  0  0  0  0  0  0  0  0  0  0
   29.7850  110.6150   35.4530 O   0  0  0  0  0  0  0  0  0  0  0  0
   25.5050  111.5780   33.5000 H   0  0  0  0  0  0  0  0  0  0  0  0
   26.6660  109.6190   32.4860 H   0  0  0  0  0  0  0  0  0  0  0  0
   24.0000  109.1160   33.3180 H   0  0  0  0  0  0  0  0  0  0  0  0
   25.5590  108.0400   34.8570 H   0  0  0  0  0  0  0  0  0  0  0  0
   27.2740  107.3610   32.6950 H   0  0  0  0  0  0  0  0  0  0  0  0
   28.4470  108.7660   34.1750 H   0  0  0  0  0  0  0  0  0  0  0  0
   26.7260  109.7180   36.5120 H   0  0  0  0  0  0  0  0  0  0  0  0
   28.5380  111.3560   36.8950 H   0  0  0  0  0  0  0  0  0  0  0  0
   29.0770  109.6940   37.1350 H   0  0  0  0  0  0  0  0  0  0  0  0
   29.5100  111.2980   34.8370 H   0  0  0  0  0  0  0  0  0  0  0  0
   21.3900  112.5430   36.7110 C   0  0  2  0  0  0  0  0  0  0  0  0
   21.7300  112.0230   38.0290 O   0  0  0  0  0  0  0  0  0  0  0  0
   21.1160  111.3680   35.7460 C   0  0  2  0  0  0  0  0  0  0  0  0
   20.0460  110.6160   36.2830 O   0  0  0  0  0  0  0  0  0  0  0  0
   22.3800  110.5060   35.5940 C   0  0  1  0  0  0  0  0  0  0  0  0
   22.1390  109.4780   34.6530 O   0  0  0  0  0  0  0  0  0  0  0  0
   23.5600  111.3620   35.1060 C   0  0  1  0  0  0  0  0  0  0  0  0
   23.7960  112.5390   36.0760 C   0  0  2  0  0  0  0  0  0  0  0  0
   22.5420  113.2760   36.2130 O   0  0  0  0  0  0  0  0  0  0  0  0
   24.8500  113.5560   35.6160 C   0  0  0  0  0  0  0  0  0  0  0  0
   24.5530  114.0830   34.3390 O   0  0  0  0  0  0  0  0  0  0  0  0
   20.5200  113.1850   36.7600 H   0  0  0  0  0  0  0  0  0  0  0  0
   20.8240  111.7410   34.7630 H   0  0  0  0  0  0  0  0  0  0  0  0
   20.2890  110.3290   37.1660 H   0  0  0  0  0  0  0  0  0  0  0  0
   22.6330  110.0550   36.5540 H   0  0  0  0  0  0  0  0  0  0  0  0
   21.9210  109.8820   33.8090 H   0  0  0  0  0  0  0  0  0  0  0  0
   23.3380  111.7370   34.1060 H   0  0  0  0  0  0  0  0  0  0  0  0
   24.1180  112.1330   37.0350 H   0  0  0  0  0  0  0  0  0  0  0  0
   24.8900  114.3760   36.3340 H   0  0  0  0  0  0  0  0  0  0  0  0
   25.8300  113.0840   35.5890 H   0  0  0  0  0  0  0  0  0  0  0  0
   23.7180  114.5530   34.3910 H   0  0  0  0  0  0  0  0  0  0  0  0
   21.1150  112.8950   42.1030 C   0  0  2  0  0  0  0  0  0  0  0  0
   21.8510  111.6750   42.4140 O   0  0  0  0  0  0  0  0  0  0  0  0
   19.8640  112.5420   41.2690 C   0  0  2  0  0  0  0  0  0  0  0  0
   19.0620  111.6780   42.0480 O   0  0  0  0  0  0  0  0  0  0  0  0
   20.2850  111.8750   39.9460 C   0  0  1  0  0  0  0  0  0  0  0  0
   19.1350  111.6450   39.1560 O   0  0  0  0  0  0  0  0  0  0  0  0
   21.2540  112.7840   39.1690 C   0  0  1  0  0  0  0  0  0  0  0  0
   22.4700  113.1510   40.0420 C   0  0  2  0  0  0  0  0  0  0  0  0
   21.9720  113.7310   41.2820 O   0  0  0  0  0  0  0  0  0  0  0  0
   23.4070  114.1900   39.4100 C   0  0  0  0  0  0  0  0  0  0  0  0
   22.7250  115.3750   39.0560 O   0  0  0  0  0  0  0  0  0  0  0  0
   20.8250  113.4180   43.0050 H   0  0  0  0  0  0  0  0  0  0  0  0
   19.2910  113.4420   41.0410 H   0  0  0  0  0  0  0  0  0  0  0  0
   19.5840  110.9080   42.2840 H   0  0  0  0  0  0  0  0  0  0  0  0
   20.7720  110.9210   40.1550 H   0  0  0  0  0  0  0  0  0  0  0  0
   18.7150  112.4890   38.9760 H   0  0  0  0  0  0  0  0  0  0  0  0
   20.7270  113.6950   38.8780 H   0  0  0  0  0  0  0  0  0  0  0  0
   23.0500  112.2480   40.2350 H   0  0  0  0  0  0  0  0  0  0  0  0
   24.1960  114.4350   40.1220 H   0  0  0  0  0  0  0  0  0  0  0  0
   23.8710  113.7680   38.5220 H   0  0  0  0  0  0  0  0  0  0  0  0
   22.3740  115.7750   39.8550 H   0  0  0  0  0  0  0  0  0  0  0  0
   23.8650  110.0140   45.7550 C   0  0  2  0  0  0  0  0  0  0  0  0
   24.7630  109.2660   44.8870 O   0  0  0  0  0  0  0  0  0  0  0  0
   22.4050  109.5780   45.4960 C   0  0  2  0  0  0  0  0  0  0  0  0
   22.3280  108.1840   45.7230 O   0  0  0  0  0  0  0  0  0  0  0  0
   21.9900  109.9290   44.0560 C   0  0  1  0  0  0  0  0  0  0  0  0
   20.6300  109.5900   43.8650 O   0  0  0  0  0  0  0  0  0  0  0  0
   22.1750  111.4350   43.8080 C   0  0  1  0  0  0  0  0  0  0  0  0
   23.6500  111.8110   44.0490 C   0  0  2  0  0  0  0  0  0  0  0  0
   23.9930  111.4220   45.4130 O   0  0  0  0  0  0  0  0  0  0  0  0
   23.9700  113.3080   43.9260 C   0  0  0  0  0  0  0  0  0  0  0  0
   23.1320  114.0970   44.7450 O   0  0  0  0  0  0  0  0  0  0  0  0
   24.1120  109.8500   46.7960 H   0  0  0  0  0  0  0  0  0  0  0  0
   21.7290  110.0830   46.1870 H   0  0  0  0  0  0  0  0  0  0  0  0
   22.9560  107.7460   45.1440 H   0  0  0  0  0  0  0  0  0  0  0  0
   22.6000  109.3660   43.3490 H   0  0  0  0  0  0  0  0  0  0  0  0
   20.1010  110.0900   44.4900 H   0  0  0  0  0  0  0  0  0  0  0  0
   21.5290  111.9900   44.4900 H   0  0  0  0  0  0  0  0  0  0  0  0
   24.2630  111.2780   43.3220 H   0  0  0  0  0  0  0  0  0  0  0  0
   25.0070  113.4740   44.2190 H   0  0  0  0  0  0  0  0  0  0  0  0
   23.8590  113.6210   42.8910 H   0  0  0  0  0  0  0  0  0  0  0  0
   23.2860  113.8550   45.6610 H   0  0  0  0  0  0  0  0  0  0  0  0
   28.5480  107.4170   45.0430 C   0  0  2  0  0  0  0  0  0  0  0  0
   28.2660  106.8490   43.7330 O   0  0  0  0  0  0  0  0  0  0  0  0
   27.4900  106.9310   46.0560 C   0  0  2  0  0  0  0  0  0  0  0  0
   27.5760  105.5210   46.1180 O   0  0  0  0  0  0  0  0  0  0  0  0
   26.0880  107.3900   45.6150 C   0  0  1  0  0  0  0  0  0  0  0  0
   25.1460  107.0110   46.5990 O   0  0  0  0  0  0  0  0  0  0  0  0
   26.0570  108.9190   45.4480 C   0  0  1  0  0  0  0  0  0  0  0  0
   27.1460  109.3790   44.4590 C   0  0  2  0  0  0  0  0  0  0  0  0
   28.4250  108.8600   44.9270 O   0  0  0  0  0  0  0  0  0  0  0  0
   27.2910  110.9040   44.3570 C   0  0  0  0  0  0  0  0  0  0  0  0
   27.5470  111.4990   45.6130 O   0  0  0  0  0  0  0  0  0  0  0  0
   29.5360  107.1420   45.3830 H   0  0  0  0  0  0  0  0  0  0  0  0
   27.6970  107.3370   47.0470 H   0  0  0  0  0  0  0  0  0  0  0  0
   27.4420  105.1690   45.2340 H   0  0  0  0  0  0  0  0  0  0  0  0
   25.8260  106.9150   44.6690 H   0  0  0  0  0  0  0  0  0  0  0  0
   25.3840  107.4340   47.4280 H   0  0  0  0  0  0  0  0  0  0  0  0
   26.2320  109.3850   46.4190 H   0  0  0  0  0  0  0  0  0  0  0  0
   26.9050  108.9960   43.4670 H   0  0  0  0  0  0  0  0  0  0  0  0
   28.1130  111.1380   43.6810 H   0  0  0  0  0  0  0  0  0  0  0  0
   26.3790  111.3280   43.9440 H   0  0  0  0  0  0  0  0  0  0  0  0
   28.3880  111.1700   45.9400 H   0  0  0  0  0  0  0  0  0  0  0  0
   30.3410  105.0330   40.5480 C   0  0  2  0  0  0  0  0  0  0  0  0
   29.3660  105.6240   39.6380 O   0  0  0  0  0  0  0  0  0  0  0  0
   29.6190  104.1020   41.5450 C   0  0  2  0  0  0  0  0  0  0  0  0
   28.9730  103.0930   40.7940 O   0  0  0  0  0  0  0  0  0  0  0  0
   28.6090  104.9110   42.3770 C   0  0  2  0  0  0  0  0  0  0  0  0
   29.3140  106.0670   43.1060 C   0  0  1  0  0  0  0  0  0  0  0  0
   30.0590  106.9620   42.0910 C   0  0  2  0  0  0  0  0  0  0  0  0
   30.9490  106.1100   41.3070 O   0  0  0  0  0  0  0  0  0  0  0  0
   30.9370  108.0650   42.7030 C   0  0  0  0  0  0  0  0  0  0  0  0
   31.9540  107.5030   43.5850 N   0  0  0  0  0  0  0  0  0  0  0  0
   28.0070  104.0620   43.3350 O   0  0  0  0  0  0  0  0  0  0  0  0
   32.1540  107.8600   44.8630 C   0  0  0  0  0  0  0  0  0  0  0  0
   33.2110  107.0430   45.6150 C   0  0  0  0  0  0  0  0  0  0  0  0
   33.3270  107.4010   47.1040 C   0  0  0  0  0  0  0  0  0  0  0  0
   34.3780  106.5370   47.8020 C   0  0  0  0  0  0  0  0  0  0  0  0
   33.9920  105.4530   48.2940 O   0  0  0  0  0  0  0  0  0  0  0  0
   31.5470  108.7780   45.4160 O   0  0  0  0  0  0  0  0  0  0  0  0
   35.5500  106.9720   47.8300 O   0  5  0  0  0  0  0  0  0  0  0  0
   31.0940  104.4770   40.0050 H   0  0  0  0  0  0  0  0  0  0  0  0
   30.3360  103.6330   42.2190 H   0  0  0  0  0  0  0  0  0  0  0  0
   28.3740  103.5120   40.1720 H   0  0  0  0  0  0  0  0  0  0  0  0
   27.8340  105.3140   41.7230 H   0  0  0  0  0  0  0  0  0  0  0  0
   27.5240  103.3740   42.8720 H   0  0  0  0  0  0  0  0  0  0  0  0
   30.0180  105.6520   43.8290 H   0  0  0  0  0  0  0  0  0  0  0  0
   29.3200  107.4450   41.4510 H   0  0  0  0  0  0  0  0  0  0  0  0
   31.4360  108.6050   41.8980 H   0  0  0  0  0  0  0  0  0  0  0  0
   30.3080  108.7720   43.2400 H   0  0  0  0  0  0  0  0  0  0  0  0
   32.5090  106.7500   43.2060 H   0  0  0  0  0  0  0  0  0  0  0  0
   32.9590  105.9850   45.5270 H   0  0  0  0  0  0  0  0  0  0  0  0
   32.3610  107.2490   47.5880 H   0  0  0  0  0  0  0  0  0  0  0  0
   33.6030  108.4520   47.2040 H   0  0  0  0  0  0  0  0  0  0  0  0
   34.1790  107.1990   45.1360 H   0  0  0  0  0  0  0  0  0  0  0  0
   29.1090  106.7440   35.5570 C   0  0  2  0  0  0  0  0  0  0  0  0
   27.9090  107.5260   35.8160 O   0  0  0  0  0  0  0  0  0  0  0  0
   28.8560  105.2630   35.9180 C   0  0  2  0  0  0  0  0  0  0  0  0
   27.7560  104.8180   35.1480 O   0  0  0  0  0  0  0  0  0  0  0  0
   28.5740  105.1190   37.4240 C   0  0  1  0  0  0  0  0  0  0  0  0
   28.4260  103.7500   37.7420 O   0  0  0  0  0  0  0  0  0  0  0  0
   29.7410  105.7030   38.2370 C   0  0  1  0  0  0  0  0  0  0  0  0
   29.9340  107.1840   37.8600 C   0  0  2  0  0  0  0  0  0  0  0  0
   30.1620  107.2540   36.4210 O   0  0  0  0  0  0  0  0  0  0  0  0
   31.1340  107.8690   38.5300 C   0  0  0  0  0  0  0  0  0  0  0  0
   32.3340  107.1510   38.3290 O   0  0  0  0  0  0  0  0  0  0  0  0
   29.4000  106.8190   34.5170 H   0  0  0  0  0  0  0  0  0  0  0  0
   29.7270  104.6560   35.6660 H   0  0  0  0  0  0  0  0  0  0  0  0
   27.0040  105.3850   35.3350 H   0  0  0  0  0  0  0  0  0  0  0  0
   27.6530  105.6460   37.6780 H   0  0  0  0  0  0  0  0  0  0  0  0
   29.2420  103.2950   37.5180 H   0  0  0  0  0  0  0  0  0  0  0  0
   30.6480  105.1410   38.0100 H   0  0  0  0  0  0  0  0  0  0  0  0
   29.0350  107.7310   38.1440 H   0  0  0  0  0  0  0  0  0  0  0  0
   31.2480  108.8710   38.1160 H   0  0  0  0  0  0  0  0  0  0  0  0
   30.9470  107.9650   39.5970 H   0  0  0  0  0  0  0  0  0  0  0  0
   32.5220  107.1280   37.3880 H   0  0  0  0  0  0  0  0  0  0  0  0
  1  2  1  0  0  0  0
  1  3  1  0  0  0  0
  1  9  1  0  0  0  0
  1 12  1  0  0  0  0
  2 28  1  0  0  0  0
  3  4  1  0  0  0  0
  3  5  1  0  0  0  0
  3 13  1  0  0  0  0
  4 14  1  0  0  0  0
  5  6  1  0  0  0  0
  5  7  1  0  0  0  0
  5 15  1  0  0  0  0
  6 16  1  0  0  0  0
  7  8  1  0  0  0  0
  7 17  1  0  0  0  0
  7139  1  0  0  0  0
  8  9  1  0  0  0  0
  8 10  1  0  0  0  0
  8 18  1  0  0  0  0
 10 11  1  0  0  0  0
 10 19  1  0  0  0  0
 10 20  1  0  0  0  0
 11 21  1  0  0  0  0
 22 23  1  0  0  0  0
 22 24  1  0  0  0  0
 22 30  1  0  0  0  0
 22 33  1  0  0  0  0
 23 49  1  0  0  0  0
 24 25  1  0  0  0  0
 24 26  1  0  0  0  0
 24 34  1  0  0  0  0
 25 35  1  0  0  0  0
 26 27  1  0  0  0  0
 26 28  1  0  0  0  0
 26 36  1  0  0  0  0
 27 37  1  0  0  0  0
 28 29  1  0  0  0  0
 28 38  1  0  0  0  0
 29 30  1  0  0  0  0
 29 31  1  0  0  0  0
 29 39  1  0  0  0  0
 31 32  1  0  0  0  0
 31 40  1  0  0  0  0
 31 41  1  0  0  0  0
 32 42  1  0  0  0  0
 43 44  1  0  0  0  0
 43 45  1  0  0  0  0
 43 51  1  0  0  0  0
 43 54  1  0  0  0  0
 44 70  1  0  0  0  0
 45 46  1  0  0  0  0
 45 47  1  0  0  0  0
 45 55  1  0  0  0  0
 46 56  1  0  0  0  0
 47 48  1  0  0  0  0
 47 49  1  0  0  0  0
 47 57  1  0  0  0  0
 48 58  1  0  0  0  0
 49 50  1  0  0  0  0
 49 59  1  0  0  0  0
 50 51  1  0  0  0  0
 50 52  1  0  0  0  0
 50 60  1  0  0  0  0
 52 53  1  0  0  0  0
 52 61  1  0  0  0  0
 52 62  1  0  0  0  0
 53 63  1  0  0  0  0
 64 65  1  0  0  0  0
 64 66  1  0  0  0  0
 64 72  1  0  0  0  0
 64 75  1  0  0  0  0
 65 91  1  0  0  0  0
 66 67  1  0  0  0  0
 66 68  1  0  0  0  0
 66 76  1  0  0  0  0
 67 77  1  0  0  0  0
 68 69  1  0  0  0  0
 68 70  1  0  0  0  0
 68 78  1  0  0  0  0
 69 79  1  0  0  0  0
 70 71  1  0  0  0  0
 70 80  1  0  0  0  0
 71 72  1  0  0  0  0
 71 73  1  0  0  0  0
 71 81  1  0  0  0  0
 73 74  1  0  0  0  0
 73 82  1  0  0  0  0
 73 83  1  0  0  0  0
 74 84  1  0  0  0  0
 85 86  1  0  0  0  0
 85 87  1  0  0  0  0
 85 93  1  0  0  0  0
 85 96  1  0  0  0  0
 86111  1  0  0  0  0
 87 88  1  0  0  0  0
 87 89  1  0  0  0  0
 87 97  1  0  0  0  0
 88 98  1  0  0  0  0
 89 90  1  0  0  0  0
 89 91  1  0  0  0  0
 89 99  1  0  0  0  0
 90100  1  0  0  0  0
 91 92  1  0  0  0  0
 91101  1  0  0  0  0
 92 93  1  0  0  0  0
 92 94  1  0  0  0  0
 92102  1  0  0  0  0
 94 95  1  0  0  0  0
 94103  1  0  0  0  0
 94104  1  0  0  0  0
 95105  1  0  0  0  0
106107  1  0  0  0  0
106108  1  0  0  0  0
106113  1  0  0  0  0
106124  1  0  0  0  0
107144  1  0  0  0  0
108109  1  0  0  0  0
108110  1  0  0  0  0
108125  1  0  0  0  0
109126  1  0  0  0  0
110111  1  0  0  0  0
110116  1  0  0  0  0
110127  1  0  0  0  0
111112  1  0  0  0  0
111129  1  0  0  0  0
112113  1  0  0  0  0
112114  1  0  0  0  0
112130  1  0  0  0  0
114115  1  0  0  0  0
114131  1  0  0  0  0
114132  1  0  0  0  0
115117  1  0  0  0  0
115133  1  0  0  0  0
116128  1  0  0  0  0
117118  1  0  0  0  0
117122  2  0  0  0  0
118119  1  0  0  0  0
118134  1  0  0  0  0
118137  1  0  0  0  0
119120  1  0  0  0  0
119135  1  0  0  0  0
119136  1  0  0  0  0
120121  2  0  0  0  0
120123  1  0  0  0  0
138139  1  0  0  0  0
138140  1  0  0  0  0
138146  1  0  0  0  0
138149  1  0  0  0  0
140141  1  0  0  0  0
140142  1  0  0  0  0
140150  1  0  0  0  0
141151  1  0  0  0  0
142143  1  0  0  0  0
142144  1  0  0  0  0
142152  1  0  0  0  0
143153  1  0  0  0  0
144145  1  0  0  0  0
144154  1  0  0  0  0
145146  1  0  0  0  0
145147  1  0  0  0  0
145155  1  0  0  0  0
147148  1  0  0  0  0
147156  1  0  0  0  0
147157  1  0  0  0  0
148158  1  0  0  0  0
M  CHG  1 123  -1
M  END
$$$$
