MGLab23
  -OEChem-09261916123D

191198  0     1  0  0  0  0  0999 V2000
   25.9470  110.7700   34.1300 C   0  0  2  0  0  0  0  0  0  0  0  0
   24.9170  110.5290   35.1320 O   0  0  0  0  0  0  0  0  0  0  0  0
   26.1270  109.5040   33.2640 C   0  0  2  0  0  0  0  0  0  0  0  0
   24.8950  109.2520   32.6180 O   0  0  0  0  0  0  0  0  0  0  0  0
   26.5480  108.3200   34.1520 C   0  0  1  0  0  0  0  0  0  0  0  0
   26.7930  107.1920   33.3360 O   0  0  0  0  0  0  0  0  0  0  0  0
   27.8280  108.6600   34.9350 C   0  0  1  0  0  0  0  0  0  0  0  0
   27.6490  109.9600   35.7450 C   0  0  2  0  0  0  0  0  0  0  0  0
   27.1950  111.0050   34.8350 O   0  0  0  0  0  0  0  0  0  0  0  0
   28.9410  110.4680   36.4000 C   0  0  0  0  0  0  0  0  0  0  0  0
   29.9710  110.6750   35.4550 O   0  0  0  0  0  0  0  0  0  0  0  0
   25.6710  111.6150   33.5000 H   0  0  0  0  0  0  0  0  0  0  0  0
   26.9090  109.6450   32.5180 H   0  0  0  0  0  0  0  0  0  0  0  0
   24.2290  109.1330   33.3000 H   0  0  0  0  0  0  0  0  0  0  0  0
   25.7460  108.1080   34.8600 H   0  0  0  0  0  0  0  0  0  0  0  0
   27.5020  107.4200   32.7310 H   0  0  0  0  0  0  0  0  0  0  0  0
   28.6590  108.7900   34.2410 H   0  0  0  0  0  0  0  0  0  0  0  0
   26.9370  109.7350   36.5390 H   0  0  0  0  0  0  0  0  0  0  0  0
   28.7320  111.4110   36.9040 H   0  0  0  0  0  0  0  0  0  0  0  0
   29.2770  109.7320   37.1300 H   0  0  0  0  0  0  0  0  0  0  0  0
   29.6570  111.3240   34.8210 H   0  0  0  0  0  0  0  0  0  0  0  0
   21.4950  112.4980   36.6360 C   0  0  2  0  0  0  0  0  0  0  0  0
   21.7760  111.9580   37.9600 O   0  0  0  0  0  0  0  0  0  0  0  0
   21.2760  111.3380   35.6390 C   0  0  2  0  0  0  0  0  0  0  0  0
   20.1930  110.5640   36.1160 O   0  0  0  0  0  0  0  0  0  0  0  0
   22.5550  110.4920   35.5240 C   0  0  1  0  0  0  0  0  0  0  0  0
   22.3630  109.4760   34.5590 O   0  0  0  0  0  0  0  0  0  0  0  0
   23.7390  111.3740   35.0950 C   0  0  1  0  0  0  0  0  0  0  0  0
   23.9260  112.5250   36.1040 C   0  0  2  0  0  0  0  0  0  0  0  0
   22.6620  113.2500   36.2060 O   0  0  0  0  0  0  0  0  0  0  0  0
   24.9960  113.5560   35.7130 C   0  0  0  0  0  0  0  0  0  0  0  0
   24.7480  114.1170   34.4400 O   0  0  0  0  0  0  0  0  0  0  0  0
   20.6050  113.1270   36.6690 H   0  0  0  0  0  0  0  0  0  0  0  0
   21.0480  111.7180   34.6430 H   0  0  0  0  0  0  0  0  0  0  0  0
   20.4260  110.2470   36.9910 H   0  0  0  0  0  0  0  0  0  0  0  0
   22.7720  110.0480   36.4950 H   0  0  0  0  0  0  0  0  0  0  0  0
   22.1750  109.9030   33.7200 H   0  0  0  0  0  0  0  0  0  0  0  0
   23.5710  111.7970   34.1040 H   0  0  0  0  0  0  0  0  0  0  0  0
   24.2480  112.0580   37.0350 H   0  0  0  0  0  0  0  0  0  0  0  0
   25.0030  114.3540   36.4550 H   0  0  0  0  0  0  0  0  0  0  0  0
   25.9690  113.0650   35.6980 H   0  0  0  0  0  0  0  0  0  0  0  0
   23.8890  114.5430   34.4740 H   0  0  0  0  0  0  0  0  0  0  0  0
   20.9350  112.7790   42.0130 C   0  0  2  0  0  0  0  0  0  0  0  0
   21.6890  111.5850   42.3640 O   0  0  0  0  0  0  0  0  0  0  0  0
   19.7420  112.3870   41.1140 C   0  0  2  0  0  0  0  0  0  0  0  0
   18.9300  111.4930   41.8490 O   0  0  0  0  0  0  0  0  0  0  0  0
   20.2530  111.7390   39.8130 C   0  0  1  0  0  0  0  0  0  0  0  0
   19.1530  111.4700   38.9660 O   0  0  0  0  0  0  0  0  0  0  0  0
   21.2250  112.6870   39.0890 C   0  0  1  0  0  0  0  0  0  0  0  0
   22.3880  113.0780   40.0220 C   0  0  2  0  0  0  0  0  0  0  0  0
   21.8150  113.6390   41.2400 O   0  0  0  0  0  0  0  0  0  0  0  0
   23.3300  114.1420   39.4410 C   0  0  0  0  0  0  0  0  0  0  0  0
   22.6380  115.3120   39.0550 O   0  0  0  0  0  0  0  0  0  0  0  0
   20.5720  113.2770   42.9120 H   0  0  0  0  0  0  0  0  0  0  0  0
   19.1600  113.2640   40.8300 H   0  0  0  0  0  0  0  0  0  0  0  0
   19.4710  110.7350   42.0820 H   0  0  0  0  0  0  0  0  0  0  0  0
   20.7740  110.8150   40.0600 H   0  0  0  0  0  0  0  0  0  0  0  0
   18.7230  112.3060   38.7730 H   0  0  0  0  0  0  0  0  0  0  0  0
   20.7010  113.5900   38.7760 H   0  0  0  0  0  0  0  0  0  0  0  0
   22.9730  112.1740   40.1860 H   0  0  0  0  0  0  0  0  0  0  0  0
   24.0710  114.4050   40.1950 H   0  0  0  0  0  0  0  0  0  0  0  0
   23.8320  113.7260   38.5670 H   0  0  0  0  0  0  0  0  0  0  0  0
   22.2030  115.6620   39.8360 H   0  0  0  0  0  0  0  0  0  0  0  0
   23.4610  109.8970   45.8000 C   0  0  2  0  0  0  0  0  0  0  0  0
   24.5380  109.4100   44.9550 O   0  0  0  0  0  0  0  0  0  0  0  0
   22.1240  109.2910   45.3200 C   0  0  2  0  0  0  0  0  0  0  0  0
   22.2400  107.8840   45.4070 O   0  0  0  0  0  0  0  0  0  0  0  0
   21.8350  109.7350   43.8760 C   0  0  1  0  0  0  0  0  0  0  0  0
   20.5750  109.2350   43.4730 O   0  0  0  0  0  0  0  0  0  0  0  0
   21.8210  111.2690   43.7750 C   0  0  1  0  0  0  0  0  0  0  0  0
   23.1580  111.8470   44.2850 C   0  0  2  0  0  0  0  0  0  0  0  0
   23.3910  111.3390   45.6340 O   0  0  0  0  0  0  0  0  0  0  0  0
   23.2070  113.3780   44.3810 C   0  0  0  0  0  0  0  0  0  0  0  0
   22.1600  113.8900   45.1800 O   0  0  0  0  0  0  0  0  0  0  0  0
   23.6400  109.6230   46.8400 H   0  0  0  0  0  0  0  0  0  0  0  0
   21.2950  109.6340   45.9390 H   0  0  0  0  0  0  0  0  0  0  0  0
   22.9770  107.6190   44.8510 H   0  0  0  0  0  0  0  0  0  0  0  0
   22.6190  109.3430   43.2280 H   0  0  0  0  0  0  0  0  0  0  0  0
   19.9150  109.6020   44.0660 H   0  0  0  0  0  0  0  0  0  0  0  0
   21.0090  111.6900   44.3690 H   0  0  0  0  0  0  0  0  0  0  0  0
   23.9080  111.5400   43.5560 H   0  0  0  0  0  0  0  0  0  0  0  0
   24.1600  113.6740   44.8190 H   0  0  0  0  0  0  0  0  0  0  0  0
   23.1220  113.7970   43.3790 H   0  0  0  0  0  0  0  0  0  0  0  0
   22.2510  113.5110   46.0570 H   0  0  0  0  0  0  0  0  0  0  0  0
   28.4100  107.8890   45.0950 C   0  0  2  0  0  0  0  0  0  0  0  0
   28.0760  107.3930   43.7640 O   0  0  0  0  0  0  0  0  0  0  0  0
   27.4290  107.3090   46.1360 C   0  0  2  0  0  0  0  0  0  0  0  0
   27.6250  105.9110   46.1850 O   0  0  0  0  0  0  0  0  0  0  0  0
   25.9870  107.6680   45.7370 C   0  0  1  0  0  0  0  0  0  0  0  0
   25.0970  107.1980   46.7300 O   0  0  0  0  0  0  0  0  0  0  0  0
   25.8220  109.1920   45.5880 C   0  0  1  0  0  0  0  0  0  0  0  0
   26.8930  109.8020   44.6580 C   0  0  2  0  0  0  0  0  0  0  0  0
   28.2100  109.3260   45.0740 O   0  0  0  0  0  0  0  0  0  0  0  0
   26.9310  111.3360   44.7040 C   0  0  0  0  0  0  0  0  0  0  0  0
   27.1970  111.8220   46.0040 O   0  0  0  0  0  0  0  0  0  0  0  0
   29.4320  107.6090   45.3510 H   0  0  0  0  0  0  0  0  0  0  0  0
   27.6080  107.7290   47.1260 H   0  0  0  0  0  0  0  0  0  0  0  0
   27.4630  105.5640   45.3050 H   0  0  0  0  0  0  0  0  0  0  0  0
   25.7640  107.1990   44.7780 H   0  0  0  0  0  0  0  0  0  0  0  0
   25.3260  107.6330   47.5540 H   0  0  0  0  0  0  0  0  0  0  0  0
   25.9120  109.6530   46.5720 H   0  0  0  0  0  0  0  0  0  0  0  0
   26.6340  109.4940   43.6450 H   0  0  0  0  0  0  0  0  0  0  0  0
   27.7120  111.6890   44.0310 H   0  0  0  0  0  0  0  0  0  0  0  0
   25.9660  111.7220   44.3750 H   0  0  0  0  0  0  0  0  0  0  0  0
   28.0490  111.4730   46.2760 H   0  0  0  0  0  0  0  0  0  0  0  0
   29.7350  104.9420   40.7620 C   0  0  2  0  0  0  0  0  0  0  0  0
   29.0640  105.7720   39.7710 O   0  0  0  0  0  0  0  0  0  0  0  0
   28.6760  104.3090   41.6930 C   0  0  2  0  0  0  0  0  0  0  0  0
   27.8150  103.5290   40.8870 O   0  0  0  0  0  0  0  0  0  0  0  0
   27.9020  105.4200   42.4220 C   0  0  2  0  0  0  0  0  0  0  0  0
   28.8680  106.3070   43.2250 C   0  0  1  0  0  0  0  0  0  0  0  0
   29.9310  106.9070   42.2820 C   0  0  2  0  0  0  0  0  0  0  0  0
   30.5830  105.8110   41.5670 O   0  0  0  0  0  0  0  0  0  0  0  0
   31.0340  107.6960   43.0020 C   0  0  0  0  0  0  0  0  0  0  0  0
   31.7160  106.9000   43.9500 O   0  0  0  0  0  0  0  0  0  0  0  0
   26.9240  104.8300   43.3300 N   0  0  0  0  0  0  0  0  0  0  0  0
   25.5940  104.9850   43.2290 C   0  0  0  0  0  0  0  0  0  0  0  0
   24.7490  104.3210   44.3150 C   0  0  0  0  0  0  0  0  0  0  0  0
   24.7180  102.7960   44.1530 C   0  0  0  0  0  0  0  0  0  0  0  0
   23.8870  102.0930   45.2310 C   0  0  0  0  0  0  0  0  0  0  0  0
   24.3210  100.8750   45.5940 N   0  0  0  0  0  0  0  0  0  0  0  0
   23.7240   99.9910   46.5920 C   0  0  2  0  0  0  0  0  0  0  0  0
   24.6940   98.9970   47.2520 C   0  0  0  0  0  0  0  0  0  0  0  0
   25.8180   98.5940   46.5900 O   0  0  0  0  0  0  0  0  0  0  0  0
   22.4880   99.2850   46.0020 C   0  0  0  0  0  0  0  0  0  0  0  0
   22.0380   98.0960   46.8640 C   0  0  0  0  0  0  0  0  0  0  0  0
   20.8560   97.3590   46.2340 C   0  0  0  0  0  0  0  0  0  0  0  0
   21.1290   96.6170   45.1500 N   0  0  0  0  0  0  0  0  0  0  0  0
   20.1500   95.8240   44.4110 C   0  0  1  0  0  0  0  0  0  0  0  0
   20.8240   94.6390   43.6970 C   0  0  0  0  0  0  0  0  0  0  0  0
   22.1070   94.7790   43.3220 N   0  0  0  0  0  0  0  0  0  0  0  0
   22.9010   93.7490   42.6680 C   0  0  0  0  0  0  0  0  0  0  0  0
   23.3780   92.7110   43.6800 C   0  0  0  0  0  0  0  0  0  0  0  0
   24.5820   92.9110   44.2910 O   0  0  0  0  0  0  0  0  0  0  0  0
   19.0760   95.2680   45.3580 C   0  0  0  0  0  0  0  0  0  0  0  0
   18.0610   96.6070   46.0400 S   0  0  0  0  0  0  0  0  0  0  0  0
   25.0460  105.6200   42.3280 O   0  0  0  0  0  0  0  0  0  0  0  0
   22.8750  102.6270   45.6860 O   0  0  0  0  0  0  0  0  0  0  0  0
   24.4570   98.5510   48.3720 O   0  5  0  0  0  0  0  0  0  0  0  0
   19.7290   97.4770   46.7140 O   0  0  0  0  0  0  0  0  0  0  0  0
   20.1870   93.6000   43.5200 O   0  0  0  0  0  0  0  0  0  0  0  0
   22.7010   91.7200   43.9470 O   0  5  0  0  0  0  0  0  0  0  0  0
   30.3170  104.1610   40.2730 H   0  0  0  0  0  0  0  0  0  0  0  0
   29.1400  103.6780   42.4510 H   0  0  0  0  0  0  0  0  0  0  0  0
   27.4230  104.1110   40.2320 H   0  0  0  0  0  0  0  0  0  0  0  0
   27.3900  106.0310   41.6790 H   0  0  0  0  0  0  0  0  0  0  0  0
   29.3670  105.7310   44.0040 H   0  0  0  0  0  0  0  0  0  0  0  0
   29.4030  107.6000   41.6270 H   0  0  0  0  0  0  0  0  0  0  0  0
   31.7500  108.0550   42.2630 H   0  0  0  0  0  0  0  0  0  0  0  0
   30.5830  108.5460   43.5150 H   0  0  0  0  0  0  0  0  0  0  0  0
   32.1050  106.1580   43.4800 H   0  0  0  0  0  0  0  0  0  0  0  0
   27.2720  104.2650   44.0900 H   0  0  0  0  0  0  0  0  0  0  0  0
   23.7300  104.7050   44.2540 H   0  0  0  0  0  0  0  0  0  0  0  0
   25.1710  104.5650   45.2900 H   0  0  0  0  0  0  0  0  0  0  0  0
   24.2930  102.5590   43.1780 H   0  0  0  0  0  0  0  0  0  0  0  0
   25.7400  102.4210   44.2050 H   0  0  0  0  0  0  0  0  0  0  0  0
   25.1500  100.5340   45.1270 H   0  0  0  0  0  0  0  0  0  0  0  0
   23.4180  100.6370   47.4150 H   0  0  0  0  0  0  0  0  0  0  0  0
   22.7330   98.9230   45.0030 H   0  0  0  0  0  0  0  0  0  0  0  0
   21.6700  100.0030   45.9370 H   0  0  0  0  0  0  0  0  0  0  0  0
   22.8710   97.4020   46.9710 H   0  0  0  0  0  0  0  0  0  0  0  0
   21.7420   98.4640   47.8460 H   0  0  0  0  0  0  0  0  0  0  0  0
   22.0840   96.6060   44.8200 H   0  0  0  0  0  0  0  0  0  0  0  0
   19.6930   96.4840   43.6740 H   0  0  0  0  0  0  0  0  0  0  0  0
   22.5540   95.6660   43.5080 H   0  0  0  0  0  0  0  0  0  0  0  0
   23.7670   94.2110   42.1940 H   0  0  0  0  0  0  0  0  0  0  0  0
   22.2920   93.2550   41.9100 H   0  0  0  0  0  0  0  0  0  0  0  0
   18.4360   94.5790   44.8070 H   0  0  0  0  0  0  0  0  0  0  0  0
   19.5630   94.7360   46.1760 H   0  0  0  0  0  0  0  0  0  0  0  0
   17.4630   97.2630   45.0420 H   0  0  0  0  0  0  0  0  0  0  0  0
   29.2610  106.7880   35.6890 C   0  0  2  0  0  0  0  0  0  0  0  0
   28.0510  107.5780   35.8750 O   0  0  0  0  0  0  0  0  0  0  0  0
   28.9680  105.3100   36.0310 C   0  0  2  0  0  0  0  0  0  0  0  0
   27.9450  104.8670   35.1610 O   0  0  0  0  0  0  0  0  0  0  0  0
   28.5370  105.1830   37.5030 C   0  0  1  0  0  0  0  0  0  0  0  0
   28.3520  103.8170   37.8160 O   0  0  0  0  0  0  0  0  0  0  0  0
   29.6150  105.7710   38.4300 C   0  0  1  0  0  0  0  0  0  0  0  0
   29.9170  107.2320   38.0460 C   0  0  2  0  0  0  0  0  0  0  0  0
   30.2580  107.2770   36.6270 O   0  0  0  0  0  0  0  0  0  0  0  0
   31.1000  107.8430   38.8110 C   0  0  0  0  0  0  0  0  0  0  0  0
   32.2850  107.0930   38.6390 O   0  0  0  0  0  0  0  0  0  0  0  0
   29.6080  106.8690   34.6590 H   0  0  0  0  0  0  0  0  0  0  0  0
   29.8580  104.6960   35.9000 H   0  0  0  0  0  0  0  0  0  0  0  0
   27.1790  105.4280   35.3040 H   0  0  0  0  0  0  0  0  0  0  0  0
   27.6070  105.7330   37.6480 H   0  0  0  0  0  0  0  0  0  0  0  0
   29.1900  103.3710   37.6750 H   0  0  0  0  0  0  0  0  0  0  0  0
   30.5300  105.1830   38.3530 H   0  0  0  0  0  0  0  0  0  0  0  0
   29.0240  107.8050   38.2950 H   0  0  0  0  0  0  0  0  0  0  0  0
   31.2690  108.8560   38.4460 H   0  0  0  0  0  0  0  0  0  0  0  0
   30.8550  107.8740   39.8720 H   0  0  0  0  0  0  0  0  0  0  0  0
   32.4850  107.0760   37.7000 H   0  0  0  0  0  0  0  0  0  0  0  0
  1  2  1  0  0  0  0
  1  3  1  0  0  0  0
  1  9  1  0  0  0  0
  1 12  1  0  0  0  0
  2 28  1  0  0  0  0
  3  4  1  0  0  0  0
  3  5  1  0  0  0  0
  3 13  1  0  0  0  0
  4 14  1  0  0  0  0
  5  6  1  0  0  0  0
  5  7  1  0  0  0  0
  5 15  1  0  0  0  0
  6 16  1  0  0  0  0
  7  8  1  0  0  0  0
  7 17  1  0  0  0  0
  7172  1  0  0  0  0
  8  9  1  0  0  0  0
  8 10  1  0  0  0  0
  8 18  1  0  0  0  0
 10 11  1  0  0  0  0
 10 19  1  0  0  0  0
 10 20  1  0  0  0  0
 11 21  1  0  0  0  0
 22 23  1  0  0  0  0
 22 24  1  0  0  0  0
 22 30  1  0  0  0  0
 22 33  1  0  0  0  0
 23 49  1  0  0  0  0
 24 25  1  0  0  0  0
 24 26  1  0  0  0  0
 24 34  1  0  0  0  0
 25 35  1  0  0  0  0
 26 27  1  0  0  0  0
 26 28  1  0  0  0  0
 26 36  1  0  0  0  0
 27 37  1  0  0  0  0
 28 29  1  0  0  0  0
 28 38  1  0  0  0  0
 29 30  1  0  0  0  0
 29 31  1  0  0  0  0
 29 39  1  0  0  0  0
 31 32  1  0  0  0  0
 31 40  1  0  0  0  0
 31 41  1  0  0  0  0
 32 42  1  0  0  0  0
 43 44  1  0  0  0  0
 43 45  1  0  0  0  0
 43 51  1  0  0  0  0
 43 54  1  0  0  0  0
 44 70  1  0  0  0  0
 45 46  1  0  0  0  0
 45 47  1  0  0  0  0
 45 55  1  0  0  0  0
 46 56  1  0  0  0  0
 47 48  1  0  0  0  0
 47 49  1  0  0  0  0
 47 57  1  0  0  0  0
 48 58  1  0  0  0  0
 49 50  1  0  0  0  0
 49 59  1  0  0  0  0
 50 51  1  0  0  0  0
 50 52  1  0  0  0  0
 50 60  1  0  0  0  0
 52 53  1  0  0  0  0
 52 61  1  0  0  0  0
 52 62  1  0  0  0  0
 53 63  1  0  0  0  0
 64 65  1  0  0  0  0
 64 66  1  0  0  0  0
 64 72  1  0  0  0  0
 64 75  1  0  0  0  0
 65 91  1  0  0  0  0
 66 67  1  0  0  0  0
 66 68  1  0  0  0  0
 66 76  1  0  0  0  0
 67 77  1  0  0  0  0
 68 69  1  0  0  0  0
 68 70  1  0  0  0  0
 68 78  1  0  0  0  0
 69 79  1  0  0  0  0
 70 71  1  0  0  0  0
 70 80  1  0  0  0  0
 71 72  1  0  0  0  0
 71 73  1  0  0  0  0
 71 81  1  0  0  0  0
 73 74  1  0  0  0  0
 73 82  1  0  0  0  0
 73 83  1  0  0  0  0
 74 84  1  0  0  0  0
 85 86  1  0  0  0  0
 85 87  1  0  0  0  0
 85 93  1  0  0  0  0
 85 96  1  0  0  0  0
 86111  1  0  0  0  0
 87 88  1  0  0  0  0
 87 89  1  0  0  0  0
 87 97  1  0  0  0  0
 88 98  1  0  0  0  0
 89 90  1  0  0  0  0
 89 91  1  0  0  0  0
 89 99  1  0  0  0  0
 90100  1  0  0  0  0
 91 92  1  0  0  0  0
 91101  1  0  0  0  0
 92 93  1  0  0  0  0
 92 94  1  0  0  0  0
 92102  1  0  0  0  0
 94 95  1  0  0  0  0
 94103  1  0  0  0  0
 94104  1  0  0  0  0
 95105  1  0  0  0  0
106107  1  0  0  0  0
106108  1  0  0  0  0
106113  1  0  0  0  0
106143  1  0  0  0  0
107177  1  0  0  0  0
108109  1  0  0  0  0
108110  1  0  0  0  0
108144  1  0  0  0  0
109145  1  0  0  0  0
110111  1  0  0  0  0
110116  1  0  0  0  0
110146  1  0  0  0  0
111112  1  0  0  0  0
111147  1  0  0  0  0
112113  1  0  0  0  0
112114  1  0  0  0  0
112148  1  0  0  0  0
114115  1  0  0  0  0
114149  1  0  0  0  0
114150  1  0  0  0  0
115151  1  0  0  0  0
116117  1  0  0  0  0
116152  1  0  0  0  0
117118  1  0  0  0  0
117137  2  0  0  0  0
118119  1  0  0  0  0
118153  1  0  0  0  0
118154  1  0  0  0  0
119120  1  0  0  0  0
119155  1  0  0  0  0
119156  1  0  0  0  0
120121  1  0  0  0  0
120138  2  0  0  0  0
121122  1  0  0  0  0
121157  1  0  0  0  0
122123  1  0  0  0  0
122125  1  0  0  0  0
122158  1  0  0  0  0
123124  2  0  0  0  0
123139  1  0  0  0  0
125126  1  0  0  0  0
125159  1  0  0  0  0
125160  1  0  0  0  0
126127  1  0  0  0  0
126161  1  0  0  0  0
126162  1  0  0  0  0
127128  1  0  0  0  0
127140  2  0  0  0  0
128129  1  0  0  0  0
128163  1  0  0  0  0
129130  1  0  0  0  0
129135  1  0  0  0  0
129164  1  0  0  0  0
130131  1  0  0  0  0
130141  2  0  0  0  0
131132  1  0  0  0  0
131165  1  0  0  0  0
132133  1  0  0  0  0
132166  1  0  0  0  0
132167  1  0  0  0  0
133134  2  0  0  0  0
133142  1  0  0  0  0
135136  1  0  0  0  0
135168  1  0  0  0  0
135169  1  0  0  0  0
136170  1  0  0  0  0
171172  1  0  0  0  0
171173  1  0  0  0  0
171179  1  0  0  0  0
171182  1  0  0  0  0
173174  1  0  0  0  0
173175  1  0  0  0  0
173183  1  0  0  0  0
174184  1  0  0  0  0
175176  1  0  0  0  0
175177  1  0  0  0  0
175185  1  0  0  0  0
176186  1  0  0  0  0
177178  1  0  0  0  0
177187  1  0  0  0  0
178179  1  0  0  0  0
178180  1  0  0  0  0
178188  1  0  0  0  0
180181  1  0  0  0  0
180189  1  0  0  0  0
180190  1  0  0  0  0
181191  1  0  0  0  0
M  CHG  2 139  -1 142  -1
M  END
$$$$
