
  -OEChem-07181917123D

 35 37  0     1  0  0  0  0  0999 V2000
    0.8715    0.6564   -0.1128 C   0  0  0  0  0  0  0  0  0  0  0  0
    2.0907    2.6434    0.8108 C   0  0  0  0  0  0  0  0  0  0  0  0
    2.1060    2.1989   -1.6569 C   0  0  0  0  0  0  0  0  0  0  0  0
   -0.4169    2.6023    0.8057 C   0  0  0  0  0  0  0  0  0  0  0  0
   -0.4016    2.1568   -1.6677 C   0  0  0  0  0  0  0  0  0  0  0  0
    0.8204    4.1482   -0.7422 C   0  0  0  0  0  0  0  0  0  0  0  0
    0.8515    1.7471    0.9710 C   0  0  0  0  0  0  0  0  0  0  0  0
    0.8669    1.3004   -1.5092 C   0  0  0  0  0  0  0  0  0  0  0  0
    2.0923    3.2973   -0.5809 C   0  0  0  0  0  0  0  0  0  0  0  0
   -0.4423    3.2671   -0.5911 C   0  0  0  0  0  0  0  0  0  0  0  0
   -2.9656    3.3072   -0.5171 C   0  0  0  0  0  0  0  0  0  0  0  0
   -1.7055    4.1169   -0.7520 C   0  0  1  0  0  0  0  0  0  0  0  0
   -1.6502    5.2185    0.2426 N   0  3  0  0  0  0  0  0  0  0  0  0
    1.7619    0.0267    0.0060 H   0  0  0  0  0  0  0  0  0  0  0  0
    0.0000   -0.0002   -0.0000 H   0  0  0  0  0  0  0  0  0  0  0  0
    2.0967    3.4170    1.5885 H   0  0  0  0  0  0  0  0  0  0  0  0
    3.0027    2.0490    0.9462 H   0  0  0  0  0  0  0  0  0  0  0  0
    3.0182    1.5965   -1.5654 H   0  0  0  0  0  0  0  0  0  0  0  0
    2.1231    2.6528   -2.6555 H   0  0  0  0  0  0  0  0  0  0  0  0
   -1.3057    1.9730    0.9426 H   0  0  0  0  0  0  0  0  0  0  0  0
   -0.4495    3.3683    1.5911 H   0  0  0  0  0  0  0  0  0  0  0  0
   -0.4233    2.6005   -2.6714 H   0  0  0  0  0  0  0  0  0  0  0  0
   -1.2901    1.5173   -1.5871 H   0  0  0  0  0  0  0  0  0  0  0  0
    0.8159    4.9497    0.0079 H   0  0  0  0  0  0  0  0  0  0  0  0
    0.8266    4.6370   -1.7250 H   0  0  0  0  0  0  0  0  0  0  0  0
    0.8570    1.2824    1.9633 H   0  0  0  0  0  0  0  0  0  0  0  0
    0.8832    0.5189   -2.2770 H   0  0  0  0  0  0  0  0  0  0  0  0
    2.9782    3.9328   -0.6898 H   0  0  0  0  0  0  0  0  0  0  0  0
   -2.9486    2.8413    0.4739 H   0  0  0  0  0  0  0  0  0  0  0  0
   -3.0818    2.5118   -1.2613 H   0  0  0  0  0  0  0  0  0  0  0  0
   -3.8516    3.9492   -0.5688 H   0  0  0  0  0  0  0  0  0  0  0  0
   -1.7180    4.5831   -1.7384 H   0  0  0  0  0  0  0  0  0  0  0  0
   -0.8220    5.1301    0.8400 H   0  0  0  0  0  0  0  0  0  0  0  0
   -2.4792    5.2073    0.8456 H   0  0  0  0  0  0  0  0  0  0  0  0
   -1.6094    6.1303   -0.2241 H   0  0  0  0  0  0  0  0  0  0  0  0
  1  7  1  0  0  0  0
  1  8  1  0  0  0  0
  2  7  1  0  0  0  0
  2  9  1  0  0  0  0
  3  8  1  0  0  0  0
  3  9  1  0  0  0  0
  4  7  1  0  0  0  0
  4 10  1  0  0  0  0
  5  8  1  0  0  0  0
  5 10  1  0  0  0  0
  6  9  1  0  0  0  0
  6 10  1  0  0  0  0
 10 12  1  0  0  0  0
 11 12  1  0  0  0  0
 12 13  1  0  0  0  0
  1 14  1  0  0  0  0
  1 15  1  0  0  0  0
  2 16  1  0  0  0  0
  2 17  1  0  0  0  0
  3 18  1  0  0  0  0
  3 19  1  0  0  0  0
  4 20  1  0  0  0  0
  4 21  1  0  0  0  0
  5 22  1  0  0  0  0
  5 23  1  0  0  0  0
  6 24  1  0  0  0  0
  6 25  1  0  0  0  0
  7 26  1  0  0  0  0
  8 27  1  0  0  0  0
  9 28  1  0  0  0  0
 11 29  1  0  0  0  0
 11 30  1  0  0  0  0
 11 31  1  0  0  0  0
 12 32  1  0  0  0  0
 13 33  1  0  0  0  0
 13 34  1  0  0  0  0
 13 35  1  0  0  0  0
M  CHG  1  13   1
M  END
$$$$
